REMARK  5 active torsions:
REMARK  status: ('A' for Active; 'I' for Inactive)
REMARK       I    between atoms: N_2  and  C_3 
REMARK    1  A    between atoms: C_3  and  C_5 
REMARK    2  A    between atoms: C_10  and  S_11 
REMARK    3  A    between atoms: S_11  and  C_12 
REMARK    4  A    between atoms: C_16  and  C_17 
REMARK    5  A    between atoms: C_18  and  C_19 
ROOT
HETATM    1  C   UNL     1      -1.408  -0.421   0.145  1.00  0.00     0.031 C 
HETATM    2  C   UNL     1      -0.858  -1.683   0.057  1.00  0.00     0.007 C 
HETATM    3  C   UNL     1       0.466  -1.787  -0.350  1.00  0.00     0.004 C 
HETATM    4  C   UNL     1       1.155  -0.674  -0.778  1.00  0.00     0.039 C 
HETATM    5  C   UNL     1       2.494  -0.312  -0.857  1.00  0.00     0.104 C 
HETATM    6  N   UNL     1       2.474   0.875  -1.507  1.00  0.00    -0.148 NA
HETATM    7  N   UNL     1       1.244   1.279  -1.717  1.00  0.00    -0.148 NA
HETATM    8  C   UNL     1       0.391   0.439  -1.103  1.00  0.00     0.105 C 
HETATM    9  C   UNL     1      -0.960   0.508  -0.785  1.00  0.00     0.027 C 
ENDROOT
BRANCH   1  10
HETATM   10  S   UNL     1      -2.806  -0.044   1.204  1.00  0.00    -0.087 SA
BRANCH  10  11
HETATM   11  C   UNL     1      -4.282  -0.344   0.243  1.00  0.00     0.034 C 
HETATM   12  C   UNL     1      -4.725   0.642  -0.618  1.00  0.00     0.064 C 
HETATM   13  C   UNL     1      -5.572   0.271  -1.652  1.00  0.00     0.005 C 
HETATM   14  C   UNL     1      -6.051  -1.031  -1.718  1.00  0.00     0.000 C 
HETATM   15  C   UNL     1      -5.795  -1.896  -0.661  1.00  0.00     0.001 C 
HETATM   16  C   UNL     1      -4.927  -1.559   0.366  1.00  0.00     0.007 C 
BRANCH  12  17
HETATM   17  C   UNL     1      -4.566   2.043  -0.212  1.00  0.00     0.275 C 
HETATM   18  N   UNL     1      -5.373   2.591   0.836  1.00  0.00    -0.232 NA
HETATM   19  C   UNL     1      -4.900   3.834   1.440  1.00  0.00     0.155 C 
HETATM   20  O   UNL     1      -4.248   2.846  -1.137  1.00  0.00    -0.266 OA
ENDBRANCH  12  17
ENDBRANCH  10  11
ENDBRANCH   1  10
BRANCH   5  21
HETATM   21  C   UNL     1       3.548  -0.890  -0.029  1.00  0.00     0.022 C 
HETATM   22  C   UNL     1       4.817  -0.920  -0.360  1.00  0.00     0.021 C 
BRANCH  22  23
HETATM   23  C   UNL     1       5.897  -0.563   0.568  1.00  0.00     0.082 C 
HETATM   24  C   UNL     1       6.128  -1.223   1.743  1.00  0.00     0.019 C 
HETATM   25  C   UNL     1       6.929  -0.633   2.712  1.00  0.00     0.003 C 
HETATM   26  C   UNL     1       7.335   0.673   2.504  1.00  0.00     0.021 C 
HETATM   27  C   UNL     1       7.107   1.332   1.316  1.00  0.00     0.099 C 
HETATM   28  N   UNL     1       6.487   0.622   0.348  1.00  0.00    -0.244 NA
ENDBRANCH  22  23
ENDBRANCH   5  21
TORSDOF 5
