REMARK VINA RESULT:      -7.6      2.092      3.459
REMARK  5 active torsions:
REMARK  status: ('A' for Active; 'I' for Inactive)
REMARK       I    between atoms: N_2  and  C_3 
REMARK    1  A    between atoms: C_3  and  C_5 
REMARK    2  A    between atoms: C_10  and  S_11 
REMARK    3  A    between atoms: S_11  and  C_12 
REMARK    4  A    between atoms: C_16  and  C_17 
REMARK    5  A    between atoms: C_18  and  C_19 
ROOT
HETATM    1  C   UNL     1     -17.764  40.936 -41.238  1.00  0.00     0.031 C 
HETATM    2  C   UNL     1     -17.808  41.860 -42.261  1.00  0.00     0.007 C 
HETATM    3  C   UNL     1     -18.183  43.160 -41.946  1.00  0.00     0.004 C 
HETATM    4  C   UNL     1     -18.624  43.472 -40.679  1.00  0.00     0.039 C 
HETATM    5  C   UNL     1     -18.683  44.629 -39.912  1.00  0.00     0.104 C 
HETATM    6  N   UNL     1     -19.363  44.252 -38.804  1.00  0.00    -0.148 NA
HETATM    7  N   UNL     1     -19.610  42.964 -38.815  1.00  0.00    -0.148 NA
HETATM    8  C   UNL     1     -18.994  42.404 -39.872  1.00  0.00     0.105 C 
HETATM    9  C   UNL     1     -18.707  41.093 -40.231  1.00  0.00     0.027 C 
ENDROOT
BRANCH   1  10
HETATM   10  S   UNL     1     -16.746  39.461 -41.307  1.00  0.00    -0.087 SA
BRANCH  10  11
HETATM   11  C   UNL     1     -17.828  38.068 -41.021  1.00  0.00     0.034 C 
HETATM   12  C   UNL     1     -17.866  37.506 -39.759  1.00  0.00     0.064 C 
HETATM   13  C   UNL     1     -18.976  36.747 -39.418  1.00  0.00     0.005 C 
HETATM   14  C   UNL     1     -19.941  36.466 -40.377  1.00  0.00     0.000 C 
HETATM   15  C   UNL     1     -19.699  36.822 -41.699  1.00  0.00     0.001 C 
HETATM   16  C   UNL     1     -18.614  37.606 -42.058  1.00  0.00     0.007 C 
BRANCH  12  17
HETATM   17  C   UNL     1     -16.621  37.447 -38.986  1.00  0.00     0.275 C 
HETATM   18  N   UNL     1     -15.640  36.443 -39.264  1.00  0.00    -0.232 NA
HETATM   19  C   UNL     1     -14.296  36.683 -38.744  1.00  0.00     0.155 C 
HETATM   20  O   UNL     1     -16.715  37.802 -37.774  1.00  0.00    -0.266 OA
ENDBRANCH  12  17
ENDBRANCH  10  11
ENDBRANCH   1  10
BRANCH   5  21
HETATM   21  C   UNL     1     -17.818  45.788 -40.111  1.00  0.00     0.022 C 
HETATM   22  C   UNL     1     -17.246  46.460 -39.140  1.00  0.00     0.021 C 
BRANCH  22  23
HETATM   23  C   UNL     1     -15.837  46.870 -39.170  1.00  0.00     0.082 C 
HETATM   24  C   UNL     1     -14.815  46.027 -39.508  1.00  0.00     0.019 C 
HETATM   25  C   UNL     1     -13.508  46.376 -39.192  1.00  0.00     0.003 C 
HETATM   26  C   UNL     1     -13.314  47.499 -38.407  1.00  0.00     0.021 C 
HETATM   27  C   UNL     1     -14.344  48.350 -38.076  1.00  0.00     0.099 C 
HETATM   28  N   UNL     1     -15.559  48.045 -38.583  1.00  0.00    -0.244 NA
ENDBRANCH  22  23
ENDBRANCH   5  21
TORSDOF 5
