REMARK VINA RESULT:      -8.1      2.273      3.552
REMARK  5 active torsions:
REMARK  status: ('A' for Active; 'I' for Inactive)
REMARK       I    between atoms: N_2  and  C_3 
REMARK    1  A    between atoms: C_3  and  C_5 
REMARK    2  A    between atoms: C_10  and  S_11 
REMARK    3  A    between atoms: S_11  and  C_12 
REMARK    4  A    between atoms: C_16  and  C_17 
REMARK    5  A    between atoms: C_18  and  C_19 
ROOT
HETATM    1  C   UNL     1     -17.920  45.334 -39.971  1.00  0.00     0.031 C 
HETATM    2  C   UNL     1     -17.008  45.542 -40.985  1.00  0.00     0.007 C 
HETATM    3  C   UNL     1     -15.889  46.316 -40.703  1.00  0.00     0.004 C 
HETATM    4  C   UNL     1     -15.773  46.960 -39.491  1.00  0.00     0.039 C 
HETATM    5  C   UNL     1     -14.717  47.439 -38.725  1.00  0.00     0.104 C 
HETATM    6  N   UNL     1     -15.322  48.090 -37.705  1.00  0.00    -0.148 NA
HETATM    7  N   UNL     1     -16.624  47.942 -37.755  1.00  0.00    -0.148 NA
HETATM    8  C   UNL     1     -16.935  47.080 -38.740  1.00  0.00     0.105 C 
HETATM    9  C   UNL     1     -18.089  46.382 -39.075  1.00  0.00     0.027 C 
ENDROOT
BRANCH   1  10
HETATM   10  S   UNL     1     -19.028  43.924 -39.937  1.00  0.00    -0.087 SA
BRANCH  10  11
HETATM   11  C   UNL     1     -18.389  42.733 -41.105  1.00  0.00     0.034 C 
HETATM   12  C   UNL     1     -17.930  41.519 -40.631  1.00  0.00     0.064 C 
HETATM   13  C   UNL     1     -17.850  40.459 -41.523  1.00  0.00     0.005 C 
HETATM   14  C   UNL     1     -18.101  40.673 -42.872  1.00  0.00     0.000 C 
HETATM   15  C   UNL     1     -18.278  41.975 -43.325  1.00  0.00     0.001 C 
HETATM   16  C   UNL     1     -18.393  43.044 -42.451  1.00  0.00     0.007 C 
BRANCH  12  17
HETATM   17  C   UNL     1     -17.243  41.493 -39.335  1.00  0.00     0.275 C 
HETATM   18  N   UNL     1     -15.822  41.333 -39.269  1.00  0.00    -0.232 NA
HETATM   19  C   UNL     1     -15.181  41.706 -38.011  1.00  0.00     0.155 C 
HETATM   20  O   UNL     1     -17.898  40.981 -38.381  1.00  0.00    -0.266 OA
ENDBRANCH  12  17
ENDBRANCH  10  11
ENDBRANCH   1  10
BRANCH   5  21
HETATM   21  C   UNL     1     -13.348  46.939 -38.815  1.00  0.00     0.022 C 
HETATM   22  C   UNL     1     -12.301  47.555 -38.320  1.00  0.00     0.021 C 
BRANCH  22  23
HETATM   23  C   UNL     1     -11.258  46.869 -37.548  1.00  0.00     0.082 C 
HETATM   24  C   UNL     1      -9.990  46.662 -38.014  1.00  0.00     0.019 C 
HETATM   25  C   UNL     1      -9.174  45.729 -37.387  1.00  0.00     0.003 C 
HETATM   26  C   UNL     1      -9.741  44.936 -36.405  1.00  0.00     0.021 C 
HETATM   27  C   UNL     1     -11.016  45.153 -35.932  1.00  0.00     0.099 C 
HETATM   28  N   UNL     1     -11.680  46.204 -36.461  1.00  0.00    -0.244 NA
ENDBRANCH  22  23
ENDBRANCH   5  21
TORSDOF 5
