REMARK VINA RESULT:      -7.7      4.695      5.370
REMARK  5 active torsions:
REMARK  status: ('A' for Active; 'I' for Inactive)
REMARK       I    between atoms: N_2  and  C_3 
REMARK    1  A    between atoms: C_3  and  C_5 
REMARK    2  A    between atoms: C_10  and  S_11 
REMARK    3  A    between atoms: S_11  and  C_12 
REMARK    4  A    between atoms: C_16  and  C_17 
REMARK    5  A    between atoms: C_18  and  C_19 
ROOT
HETATM    1  C   UNL     1     -18.049  43.892 -44.503  1.00  0.00     0.031 C 
HETATM    2  C   UNL     1     -18.210  45.258 -44.400  1.00  0.00     0.007 C 
HETATM    3  C   UNL     1     -18.052  45.837 -43.147  1.00  0.00     0.004 C 
HETATM    4  C   UNL     1     -17.876  45.050 -42.031  1.00  0.00     0.039 C 
HETATM    5  C   UNL     1     -17.311  45.231 -40.774  1.00  0.00     0.104 C 
HETATM    6  N   UNL     1     -17.601  44.084 -40.117  1.00  0.00    -0.148 NA
HETATM    7  N   UNL     1     -18.190  43.220 -40.909  1.00  0.00    -0.148 NA
HETATM    8  C   UNL     1     -18.203  43.707 -42.163  1.00  0.00     0.105 C 
HETATM    9  C   UNL     1     -18.458  43.143 -43.407  1.00  0.00     0.027 C 
ENDROOT
BRANCH   1  10
HETATM   10  S   UNL     1     -17.597  43.082 -46.039  1.00  0.00    -0.087 SA
BRANCH  10  11
HETATM   11  C   UNL     1     -16.219  42.005 -45.672  1.00  0.00     0.034 C 
HETATM   12  C   UNL     1     -14.992  42.278 -46.246  1.00  0.00     0.064 C 
HETATM   13  C   UNL     1     -13.861  41.742 -45.650  1.00  0.00     0.005 C 
HETATM   14  C   UNL     1     -13.994  40.854 -44.590  1.00  0.00     0.000 C 
HETATM   15  C   UNL     1     -15.262  40.401 -44.249  1.00  0.00     0.001 C 
HETATM   16  C   UNL     1     -16.409  40.944 -44.808  1.00  0.00     0.007 C 
BRANCH  12  17
HETATM   17  C   UNL     1     -14.967  42.816 -47.611  1.00  0.00     0.275 C 
HETATM   18  N   UNL     1     -14.829  41.940 -48.734  1.00  0.00    -0.232 NA
HETATM   19  C   UNL     1     -15.202  42.486 -50.037  1.00  0.00     0.155 C 
HETATM   20  O   UNL     1     -14.437  43.959 -47.737  1.00  0.00    -0.266 OA
ENDBRANCH  12  17
ENDBRANCH  10  11
ENDBRANCH   1  10
BRANCH   5  21
HETATM   21  C   UNL     1     -16.293  46.232 -40.472  1.00  0.00     0.022 C 
HETATM   22  C   UNL     1     -16.121  46.781 -39.293  1.00  0.00     0.021 C 
BRANCH  22  23
HETATM   23  C   UNL     1     -14.803  46.951 -38.671  1.00  0.00     0.082 C 
HETATM   24  C   UNL     1     -14.274  48.170 -38.349  1.00  0.00     0.019 C 
HETATM   25  C   UNL     1     -12.915  48.277 -38.084  1.00  0.00     0.003 C 
HETATM   26  C   UNL     1     -12.125  47.164 -38.310  1.00  0.00     0.021 C 
HETATM   27  C   UNL     1     -12.662  45.936 -38.628  1.00  0.00     0.099 C 
HETATM   28  N   UNL     1     -14.011  45.868 -38.679  1.00  0.00    -0.244 NA
ENDBRANCH  22  23
ENDBRANCH   5  21
TORSDOF 5
