REMARK VINA RESULT:      -8.1      4.631      9.135
REMARK  5 active torsions:
REMARK  status: ('A' for Active; 'I' for Inactive)
REMARK       I    between atoms: N_2  and  C_3 
REMARK    1  A    between atoms: C_3  and  C_5 
REMARK    2  A    between atoms: C_10  and  S_11 
REMARK    3  A    between atoms: S_11  and  C_12 
REMARK    4  A    between atoms: C_16  and  C_17 
REMARK    5  A    between atoms: C_18  and  C_19 
ROOT
HETATM    1  C   UNL     1     -12.061  47.016 -39.164  1.00  0.00     0.031 C 
HETATM    2  C   UNL     1     -12.534  45.762 -38.839  1.00  0.00     0.007 C 
HETATM    3  C   UNL     1     -13.873  45.644 -38.489  1.00  0.00     0.004 C 
HETATM    4  C   UNL     1     -14.659  46.765 -38.343  1.00  0.00     0.039 C 
HETATM    5  C   UNL     1     -16.020  47.032 -38.413  1.00  0.00     0.104 C 
HETATM    6  N   UNL     1     -16.120  48.326 -38.029  1.00  0.00    -0.148 NA
HETATM    7  N   UNL     1     -14.935  48.858 -37.846  1.00  0.00    -0.148 NA
HETATM    8  C   UNL     1     -13.991  47.977 -38.223  1.00  0.00     0.105 C 
HETATM    9  C   UNL     1     -12.629  48.081 -38.477  1.00  0.00     0.027 C 
ENDROOT
BRANCH   1  10
HETATM   10  S   UNL     1     -10.622  47.271 -40.205  1.00  0.00    -0.087 SA
BRANCH  10  11
HETATM   11  C   UNL     1      -9.477  48.275 -39.272  1.00  0.00     0.034 C 
HETATM   12  C   UNL     1      -8.517  47.646 -38.501  1.00  0.00     0.064 C 
HETATM   13  C   UNL     1      -7.392  48.372 -38.141  1.00  0.00     0.005 C 
HETATM   14  C   UNL     1      -7.318  49.726 -38.444  1.00  0.00     0.000 C 
HETATM   15  C   UNL     1      -8.439  50.360 -38.966  1.00  0.00     0.001 C 
HETATM   16  C   UNL     1      -9.562  49.651 -39.363  1.00  0.00     0.007 C 
BRANCH  12  17
HETATM   17  C   UNL     1      -8.877  46.392 -37.830  1.00  0.00     0.275 C 
HETATM   18  N   UNL     1      -9.589  46.412 -36.588  1.00  0.00    -0.232 NA
HETATM   19  C   UNL     1     -10.244  45.168 -36.192  1.00  0.00     0.155 C 
HETATM   20  O   UNL     1      -8.057  45.440 -37.977  1.00  0.00    -0.266 OA
ENDBRANCH  12  17
ENDBRANCH  10  11
ENDBRANCH   1  10
BRANCH   5  21
HETATM   21  C   UNL     1     -16.977  46.216 -39.153  1.00  0.00     0.022 C 
HETATM   22  C   UNL     1     -17.417  46.498 -40.356  1.00  0.00     0.021 C 
BRANCH  22  23
HETATM   23  C   UNL     1     -17.513  45.501 -41.430  1.00  0.00     0.082 C 
HETATM   24  C   UNL     1     -17.758  45.823 -42.736  1.00  0.00     0.019 C 
HETATM   25  C   UNL     1     -18.166  44.833 -43.619  1.00  0.00     0.003 C 
HETATM   26  C   UNL     1     -18.456  43.585 -43.097  1.00  0.00     0.021 C 
HETATM   27  C   UNL     1     -18.201  43.261 -41.783  1.00  0.00     0.099 C 
HETATM   28  N   UNL     1     -17.623  44.224 -41.032  1.00  0.00    -0.244 NA
ENDBRANCH  22  23
ENDBRANCH   5  21
TORSDOF 5
