REMARK VINA RESULT:      -8.4      2.636      3.808
REMARK  5 active torsions:
REMARK  status: ('A' for Active; 'I' for Inactive)
REMARK       I    between atoms: N_2  and  C_3 
REMARK    1  A    between atoms: C_3  and  C_5 
REMARK    2  A    between atoms: C_10  and  S_11 
REMARK    3  A    between atoms: S_11  and  C_12 
REMARK    4  A    between atoms: C_16  and  C_17 
REMARK    5  A    between atoms: C_18  and  C_19 
ROOT
HETATM    1  C   UNL     1     -18.178  45.700 -39.757  1.00  0.00     0.031 C 
HETATM    2  C   UNL     1     -17.446  45.855 -40.916  1.00  0.00     0.007 C 
HETATM    3  C   UNL     1     -16.177  46.411 -40.812  1.00  0.00     0.004 C 
HETATM    4  C   UNL     1     -15.729  46.910 -39.609  1.00  0.00     0.039 C 
HETATM    5  C   UNL     1     -14.483  47.140 -39.039  1.00  0.00     0.104 C 
HETATM    6  N   UNL     1     -14.768  47.779 -37.880  1.00  0.00    -0.148 NA
HETATM    7  N   UNL     1     -16.062  47.845 -37.681  1.00  0.00    -0.148 NA
HETATM    8  C   UNL     1     -16.694  47.141 -38.638  1.00  0.00     0.105 C 
HETATM    9  C   UNL     1     -17.994  46.671 -38.782  1.00  0.00     0.027 C 
ENDROOT
BRANCH   1  10
HETATM   10  S   UNL     1     -19.489  44.486 -39.594  1.00  0.00    -0.087 SA
BRANCH  10  11
HETATM   11  C   UNL     1     -18.808  42.914 -40.099  1.00  0.00     0.034 C 
HETATM   12  C   UNL     1     -19.168  41.779 -39.397  1.00  0.00     0.064 C 
HETATM   13  C   UNL     1     -19.010  40.550 -40.021  1.00  0.00     0.005 C 
HETATM   14  C   UNL     1     -18.383  40.480 -41.258  1.00  0.00     0.000 C 
HETATM   15  C   UNL     1     -17.790  41.625 -41.777  1.00  0.00     0.001 C 
HETATM   16  C   UNL     1     -17.961  42.868 -41.189  1.00  0.00     0.007 C 
BRANCH  12  17
HETATM   17  C   UNL     1     -19.369  41.892 -37.948  1.00  0.00     0.275 C 
HETATM   18  N   UNL     1     -20.542  42.525 -37.425  1.00  0.00    -0.232 NA
HETATM   19  C   UNL     1     -20.858  42.254 -36.025  1.00  0.00     0.155 C 
HETATM   20  O   UNL     1     -18.316  42.033 -37.261  1.00  0.00    -0.266 OA
ENDBRANCH  12  17
ENDBRANCH  10  11
ENDBRANCH   1  10
BRANCH   5  21
HETATM   21  C   UNL     1     -13.263  46.441 -39.429  1.00  0.00     0.022 C 
HETATM   22  C   UNL     1     -12.071  46.709 -38.951  1.00  0.00     0.021 C 
BRANCH  22  23
HETATM   23  C   UNL     1     -11.132  45.671 -38.509  1.00  0.00     0.082 C 
HETATM   24  C   UNL     1     -11.476  44.656 -37.660  1.00  0.00     0.019 C 
HETATM   25  C   UNL     1     -10.479  43.926 -37.028  1.00  0.00     0.003 C 
HETATM   26  C   UNL     1      -9.173  44.361 -37.170  1.00  0.00     0.021 C 
HETATM   27  C   UNL     1      -8.829  45.378 -38.033  1.00  0.00     0.099 C 
HETATM   28  N   UNL     1      -9.836  45.913 -38.759  1.00  0.00    -0.244 NA
ENDBRANCH  22  23
ENDBRANCH   5  21
TORSDOF 5
