REMARK VINA RESULT:      -8.6      0.000      0.000
REMARK  5 active torsions:
REMARK  status: ('A' for Active; 'I' for Inactive)
REMARK       I    between atoms: N_2  and  C_3 
REMARK    1  A    between atoms: C_3  and  C_5 
REMARK    2  A    between atoms: C_10  and  S_11 
REMARK    3  A    between atoms: S_11  and  C_12 
REMARK    4  A    between atoms: C_16  and  C_17 
REMARK    5  A    between atoms: C_18  and  C_19 
ROOT
HETATM    1  C   UNL     1     -19.006  42.815 -39.887  1.00  0.00     0.031 C 
HETATM    2  C   UNL     1     -18.349  43.232 -41.025  1.00  0.00     0.007 C 
HETATM    3  C   UNL     1     -17.785  44.502 -41.021  1.00  0.00     0.004 C 
HETATM    4  C   UNL     1     -17.998  45.357 -39.962  1.00  0.00     0.039 C 
HETATM    5  C   UNL     1     -17.328  46.449 -39.426  1.00  0.00     0.104 C 
HETATM    6  N   UNL     1     -18.165  46.907 -38.466  1.00  0.00    -0.148 NA
HETATM    7  N   UNL     1     -19.204  46.120 -38.329  1.00  0.00    -0.148 NA
HETATM    8  C   UNL     1     -19.042  45.033 -39.106  1.00  0.00     0.105 C 
HETATM    9  C   UNL     1     -19.676  43.798 -39.171  1.00  0.00     0.027 C 
ENDROOT
BRANCH   1  10
HETATM   10  S   UNL     1     -19.227  41.083 -39.474  1.00  0.00    -0.087 SA
BRANCH  10  11
HETATM   11  C   UNL     1     -17.616  40.316 -39.570  1.00  0.00     0.034 C 
HETATM   12  C   UNL     1     -17.395  39.354 -40.537  1.00  0.00     0.064 C 
HETATM   13  C   UNL     1     -16.084  39.083 -40.899  1.00  0.00     0.005 C 
HETATM   14  C   UNL     1     -15.039  39.676 -40.203  1.00  0.00     0.000 C 
HETATM   15  C   UNL     1     -15.326  40.411 -39.058  1.00  0.00     0.001 C 
HETATM   16  C   UNL     1     -16.627  40.721 -38.695  1.00  0.00     0.007 C 
BRANCH  12  17
HETATM   17  C   UNL     1     -18.496  38.446 -40.879  1.00  0.00     0.275 C 
HETATM   18  N   UNL     1     -18.832  37.355 -40.014  1.00  0.00    -0.232 NA
HETATM   19  C   UNL     1     -20.149  36.754 -40.206  1.00  0.00     0.155 C 
HETATM   20  O   UNL     1     -18.670  38.240 -42.115  1.00  0.00    -0.266 OA
ENDBRANCH  12  17
ENDBRANCH  10  11
ENDBRANCH   1  10
BRANCH   5  21
HETATM   21  C   UNL     1     -15.899  46.697 -39.596  1.00  0.00     0.022 C 
HETATM   22  C   UNL     1     -15.197  47.519 -38.853  1.00  0.00     0.021 C 
BRANCH  22  23
HETATM   23  C   UNL     1     -13.881  47.175 -38.301  1.00  0.00     0.082 C 
HETATM   24  C   UNL     1     -12.904  48.099 -38.053  1.00  0.00     0.019 C 
HETATM   25  C   UNL     1     -11.596  47.675 -37.858  1.00  0.00     0.003 C 
HETATM   26  C   UNL     1     -11.313  46.338 -38.076  1.00  0.00     0.021 C 
HETATM   27  C   UNL     1     -12.301  45.409 -38.318  1.00  0.00     0.099 C 
HETATM   28  N   UNL     1     -13.571  45.869 -38.302  1.00  0.00    -0.244 NA
ENDBRANCH  22  23
ENDBRANCH   5  21
TORSDOF 5
