REMARK VINA RESULT:      -8.0      1.463      1.889
REMARK  5 active torsions:
REMARK  status: ('A' for Active; 'I' for Inactive)
REMARK       I    between atoms: N_2  and  C_3 
REMARK    1  A    between atoms: C_3  and  C_5 
REMARK    2  A    between atoms: C_10  and  S_11 
REMARK    3  A    between atoms: S_11  and  C_12 
REMARK    4  A    between atoms: C_16  and  C_17 
REMARK    5  A    between atoms: C_18  and  C_19 
ROOT
HETATM    1  C   UNL     1     -18.693  42.777 -39.960  1.00  0.00     0.031 C 
HETATM    2  C   UNL     1     -18.115  43.350 -41.074  1.00  0.00     0.007 C 
HETATM    3  C   UNL     1     -17.736  44.684 -40.996  1.00  0.00     0.004 C 
HETATM    4  C   UNL     1     -18.053  45.436 -39.887  1.00  0.00     0.039 C 
HETATM    5  C   UNL     1     -17.537  46.579 -39.289  1.00  0.00     0.104 C 
HETATM    6  N   UNL     1     -18.418  46.857 -38.301  1.00  0.00    -0.148 NA
HETATM    7  N   UNL     1     -19.335  45.924 -38.207  1.00  0.00    -0.148 NA
HETATM    8  C   UNL     1     -19.031  44.919 -39.048  1.00  0.00     0.105 C 
HETATM    9  C   UNL     1     -19.486  43.613 -39.185  1.00  0.00     0.027 C 
ENDROOT
BRANCH   1  10
HETATM   10  S   UNL     1     -18.662  41.010 -39.651  1.00  0.00    -0.087 SA
BRANCH  10  11
HETATM   11  C   UNL     1     -18.211  40.221 -41.189  1.00  0.00     0.034 C 
HETATM   12  C   UNL     1     -18.498  38.880 -41.356  1.00  0.00     0.064 C 
HETATM   13  C   UNL     1     -18.558  38.383 -42.650  1.00  0.00     0.005 C 
HETATM   14  C   UNL     1     -18.204  39.197 -43.719  1.00  0.00     0.000 C 
HETATM   15  C   UNL     1     -17.650  40.445 -43.459  1.00  0.00     0.001 C 
HETATM   16  C   UNL     1     -17.610  40.975 -42.179  1.00  0.00     0.007 C 
BRANCH  12  17
HETATM   17  C   UNL     1     -18.390  37.995 -40.191  1.00  0.00     0.275 C 
HETATM   18  N   UNL     1     -17.116  37.484 -39.783  1.00  0.00    -0.232 NA
HETATM   19  C   UNL     1     -17.032  36.953 -38.425  1.00  0.00     0.155 C 
HETATM   20  O   UNL     1     -19.378  37.228 -39.996  1.00  0.00    -0.266 OA
ENDBRANCH  12  17
ENDBRANCH  10  11
ENDBRANCH   1  10
BRANCH   5  21
HETATM   21  C   UNL     1     -16.160  47.036 -39.450  1.00  0.00     0.022 C 
HETATM   22  C   UNL     1     -15.479  47.675 -38.528  1.00  0.00     0.021 C 
BRANCH  22  23
HETATM   23  C   UNL     1     -14.093  47.341 -38.178  1.00  0.00     0.082 C 
HETATM   24  C   UNL     1     -13.104  48.276 -38.049  1.00  0.00     0.019 C 
HETATM   25  C   UNL     1     -11.776  47.871 -38.053  1.00  0.00     0.003 C 
HETATM   26  C   UNL     1     -11.508  46.546 -38.345  1.00  0.00     0.021 C 
HETATM   27  C   UNL     1     -12.507  45.605 -38.467  1.00  0.00     0.099 C 
HETATM   28  N   UNL     1     -13.768  46.042 -38.258  1.00  0.00    -0.244 NA
ENDBRANCH  22  23
ENDBRANCH   5  21
TORSDOF 5
