protein
  BIOVIA            3D                             0

  0  0  0  0  0  0  0  0  0  0999 V3000
M  V30 BEGIN CTAB
M  V30 COUNTS 4752 4806 0 0 0
M  V30 BEGIN ATOM
M  V30 1 N       6.6360    56.6820    -3.0940 0 CHG=1 CFG=0
M  V30 2 C       5.2960    56.1470    -3.3860 0 CHG=0 CFG=2
M  V30 3 C       5.1750    55.5960    -4.7950 0 CHG=0 CFG=0
M  V30 4 O       5.0450    56.3570    -5.7520 0 CHG=0 CFG=0
M  V30 5 C       4.2340    57.2300    -3.2340 0 CHG=0 CFG=0
M  V30 6 C       3.9040    57.5540    -1.8230 0 CHG=0 CFG=0
M  V30 7 C       3.7590    56.5440    -0.8800 0 CHG=0 CFG=0
M  V30 8 C       3.7540    58.8700    -1.4270 0 CHG=0 CFG=0
M  V30 9 C       3.4580    56.8460     0.4380 0 CHG=0 CFG=0
M  V30 10 C       3.4530    59.1830    -0.1150 0 CHG=0 CFG=0
M  V30 11 C       3.3050    58.1690     0.8210 0 CHG=0 CFG=0
M  V30 12 H       6.6611    57.0546    -2.0913 0 CHG=0 CFG=0
M  V30 13 H       5.0920    55.4250    -2.7550 0 CHG=0 CFG=0
M  V30 14 H       4.5530    58.0420    -3.6580 0 CHG=0 CFG=0
M  V30 15 H       3.4190    56.9310    -3.6680 0 CHG=0 CFG=0
M  V30 16 H       3.8610    55.6560    -1.1370 0 CHG=0 CFG=0
M  V30 17 H       3.8520    59.5520    -2.0510 0 CHG=0 CFG=0
M  V30 18 H       3.3590    56.1650     1.0630 0 CHG=0 CFG=0
M  V30 19 H       3.3510    60.0720     0.1400 0 CHG=0 CFG=0
M  V30 20 H       3.1030    58.3770     1.7040 0 CHG=0 CFG=0
M  V30 21 H       6.8595    57.4766    -3.7749 0 CHG=0 CFG=0
M  V30 22 H       7.3627    55.9042    -3.2032 0 CHG=0 CFG=0
M  V30 23 N       5.1980    54.2760    -4.9240 0 CHG=0 CFG=0
M  V30 24 C       4.9160    53.6490    -6.2010 0 CHG=0 CFG=2
M  V30 25 C       3.5250    52.9910    -6.1480 0 CHG=0 CFG=0
M  V30 26 O       2.9680    52.7980    -5.0700 0 CHG=0 CFG=0
M  V30 27 C       6.0240    52.6490    -6.5810 0 CHG=0 CFG=2
M  V30 28 O       6.1350    51.6210    -5.5930 0 CHG=0 CFG=0
M  V30 29 C       7.3610    53.3730    -6.6810 0 CHG=0 CFG=0
M  V30 30 H       5.3730    53.7240    -4.2880 0 CHG=0 CFG=0
M  V30 31 H       4.8910    54.3430    -6.8930 0 CHG=0 CFG=0
M  V30 32 H       5.8220    52.2520    -7.4420 0 CHG=0 CFG=0
M  V30 33 H       6.7270    51.0930    -5.8030 0 CHG=0 CFG=0
M  V30 34 H       8.0540    52.7510    -6.9180 0 CHG=0 CFG=0
M  V30 35 H       7.3140    54.0580    -7.3520 0 CHG=0 CFG=0
M  V30 36 H       7.5800    53.7770    -5.8380 0 CHG=0 CFG=0
M  V30 37 N       2.9300    52.7000    -7.2970 0 CHG=0 CFG=0
M  V30 38 C       1.6840    51.9550    -7.3010 0 CHG=0 CFG=2
M  V30 39 C       1.3430    51.4800    -8.6730 0 CHG=0 CFG=0
M  V30 40 O       1.5890    52.1620    -9.6310 0 CHG=0 CFG=0
M  V30 41 C       0.5080    52.7950    -6.8750 0 CHG=0 CFG=2
M  V30 42 O      -0.6160    51.9290    -6.6210 0 CHG=0 CFG=0
M  V30 43 C       0.1530    53.7700    -7.9680 0 CHG=0 CFG=0
M  V30 44 H       3.2220    52.9190    -8.0760 0 CHG=0 CFG=0
M  V30 45 H       1.7560    51.1810    -6.7040 0 CHG=0 CFG=0
M  V30 46 H       0.7300    53.2910    -6.0720 0 CHG=0 CFG=0
M  V30 47 H      -0.4300    51.3960    -6.0260 0 CHG=0 CFG=0
M  V30 48 H      -0.5970    54.3060    -7.6980 0 CHG=0 CFG=0
M  V30 49 H       0.8990    54.3460    -8.1490 0 CHG=0 CFG=0
M  V30 50 H      -0.0760    53.2950    -8.7700 0 CHG=0 CFG=0
M  V30 51 N       0.7320    50.3180    -8.7510 0 CHG=0 CFG=0
M  V30 52 C       0.2910    49.7860   -10.0260 0 CHG=0 CFG=2
M  V30 53 C      -1.2220    49.7560   -10.1490 0 CHG=0 CFG=0
M  V30 54 O      -1.7450    49.4680   -11.2060 0 CHG=0 CFG=0
M  V30 55 C       0.8590    48.4040   -10.2260 0 CHG=0 CFG=0
M  V30 56 C       2.3530    48.4810    -9.9170 0 CHG=0 CFG=0
M  V30 57 C       0.1370    47.3940    -9.3320 0 CHG=0 CFG=0
M  V30 58 H       0.5590    49.8110    -8.0780 0 CHG=0 CFG=0
M  V30 59 H       0.6370    50.3580   -10.7420 0 CHG=0 CFG=0
M  V30 60 H       0.7460    48.1330   -11.1610 0 CHG=0 CFG=0
M  V30 61 H       2.7410    47.6120   -10.0360 0 CHG=0 CFG=0
M  V30 62 H       2.7630    49.1090   -10.5160 0 CHG=0 CFG=0
M  V30 63 H       2.4690    48.7700    -9.0090 0 CHG=0 CFG=0
M  V30 64 H       0.5150    46.5230    -9.4760 0 CHG=0 CFG=0
M  V30 65 H       0.2500    47.6520    -8.4140 0 CHG=0 CFG=0
M  V30 66 H      -0.7960    47.3880    -9.5580 0 CHG=0 CFG=0
M  V30 67 N      -1.9120    50.0710    -9.0640 0 CHG=0 CFG=0
M  V30 68 C      -3.3660    50.1300    -9.0530 0 CHG=0 CFG=2
M  V30 69 C      -3.9490    51.4600    -8.5160 0 CHG=0 CFG=0
M  V30 70 O      -5.1640    51.6240    -8.4650 0 CHG=0 CFG=0
M  V30 71 C      -3.9320    48.9490    -8.2520 0 CHG=0 CFG=0
M  V30 72 C      -3.5090    48.9580    -6.7460 0 CHG=0 CFG=0
M  V30 73 O      -3.0740    50.0150    -6.2080 0 CHG=0 CFG=0
M  V30 74 O      -3.6320    47.8670    -6.1180 0 CHG=0 CFG=0
M  V30 75 H      -1.5540    50.2590    -8.3050 0 CHG=0 CFG=0
M  V30 76 H      -3.6800    50.0300    -9.9760 0 CHG=0 CFG=0
M  V30 77 H      -4.9010    48.9810    -8.2890 0 CHG=0 CFG=0
M  V30 78 H      -3.6140    48.1210    -8.6450 0 CHG=0 CFG=0
M  V30 79 N      -3.1010    52.3970    -8.1020 0 CHG=0 CFG=0
M  V30 80 C      -3.5810    53.6750    -7.5560 0 CHG=0 CFG=2
M  V30 81 C      -4.4060    53.5340    -6.2720 0 CHG=0 CFG=0
M  V30 82 O      -5.0820    54.4710    -5.8620 0 CHG=0 CFG=0
M  V30 83 C      -4.4570    54.3760    -8.5870 0 CHG=0 CFG=0
M  V30 84 C      -3.9550    55.7480    -8.9370 0 CHG=0 CFG=0
M  V30 85 O      -2.7640    55.9360    -9.1640 0 CHG=0 CFG=0
M  V30 86 N      -4.8670    56.7240    -8.9970 0 CHG=0 CFG=0
M  V30 87 H      -2.2440    52.3240    -8.1240 0 CHG=0 CFG=0
M  V30 88 H      -2.8130    54.2510    -7.3630 0 CHG=0 CFG=0
M  V30 89 H      -4.4750    53.8470    -9.4000 0 CHG=0 CFG=0
M  V30 90 H      -5.3540    54.4670    -8.2300 0 CHG=0 CFG=0
M  V30 91 H      -5.6940    56.5490    -8.8380 0 CHG=0 CFG=0
M  V30 92 H      -4.6270    57.5260    -9.1940 0 CHG=0 CFG=0
M  V30 93 N      -4.3900    52.3540    -5.6690 0 CHG=0 CFG=0
M  V30 94 C      -5.1360    52.1080    -4.4380 0 CHG=0 CFG=2
M  V30 95 C      -4.1820    51.7820    -3.2650 0 CHG=0 CFG=0
M  V30 96 O      -4.4050    52.1890    -2.1110 0 CHG=0 CFG=0
M  V30 97 C      -6.0680    50.9210    -4.6290 0 CHG=0 CFG=2
M  V30 98 O      -7.0520    51.2420    -5.6200 0 CHG=0 CFG=0
M  V30 99 C      -6.7520    50.5690    -3.3080 0 CHG=0 CFG=0
M  V30 100 H      -3.9510    51.6720    -5.9530 0 CHG=0 CFG=0
M  V30 101 H      -5.6690    52.8970    -4.2060 0 CHG=0 CFG=0
M  V30 102 H      -5.5540    50.1520    -4.9220 0 CHG=0 CFG=0
M  V30 103 H      -7.5580    50.6060    -5.7290 0 CHG=0 CFG=0
M  V30 104 H      -7.3390    49.8200    -3.4330 0 CHG=0 CFG=0
M  V30 105 H      -6.0930    50.3440    -2.6480 0 CHG=0 CFG=0
M  V30 106 H      -7.2640    51.3180    -2.9950 0 CHG=0 CFG=0
M  V30 107 N      -3.1370    51.0210    -3.5970 0 CHG=0 CFG=0
M  V30 108 C      -2.1070    50.6360    -2.6760 0 CHG=0 CFG=2
M  V30 109 C      -0.8050    51.3400    -3.0290 0 CHG=0 CFG=0
M  V30 110 O      -0.1420    51.0400    -4.0340 0 CHG=0 CFG=0
M  V30 111 C      -1.9830    49.1200    -2.6760 0 CHG=0 CFG=0
M  V30 112 C      -3.2970    48.4610    -2.3290 0 CHG=0 CFG=0
M  V30 113 O      -3.9120    48.7730    -1.2980 0 CHG=0 CFG=0
M  V30 114 N      -3.7750    47.5910    -3.2110 0 CHG=0 CFG=0
M  V30 115 H      -3.0130    50.7090    -4.3890 0 CHG=0 CFG=0
M  V30 116 H      -2.3660    50.9170    -1.7740 0 CHG=0 CFG=0
M  V30 117 H      -1.7160    48.8200    -3.5590 0 CHG=0 CFG=0
M  V30 118 H      -1.3250    48.8520    -2.0160 0 CHG=0 CFG=0
M  V30 119 H      -3.3400    47.4290    -3.9350 0 CHG=0 CFG=0
M  V30 120 H      -4.5210    47.1900    -3.0590 0 CHG=0 CFG=0
M  V30 121 N      -0.4400    52.3070    -2.1950 0 CHG=0 CFG=0
M  V30 122 C       0.8100    53.0250    -2.4210 0 CHG=0 CFG=2
M  V30 123 C       1.9240    52.4150    -1.5760 0 CHG=0 CFG=0
M  V30 124 O       1.6980    51.9520    -0.4540 0 CHG=0 CFG=0
M  V30 125 C       0.6190    54.5110    -2.1500 0 CHG=0 CFG=0
M  V30 126 C      -0.2440    55.2770    -3.1710 0 CHG=0 CFG=0
M  V30 127 C      -1.4730    54.4890    -3.5960 0 CHG=0 CFG=0
M  V30 128 C      -0.6560    56.6110    -2.5690 0 CHG=0 CFG=0
M  V30 129 H      -0.8860    52.5640    -1.5070 0 CHG=0 CFG=0
M  V30 130 H       1.0630    52.9250    -3.3630 0 CHG=0 CFG=0
M  V30 131 H       0.1970    54.6110    -1.2820 0 CHG=0 CFG=0
M  V30 132 H       1.4920    54.9340    -2.1340 0 CHG=0 CFG=0
M  V30 133 H       0.2870    55.4550    -3.9630 0 CHG=0 CFG=0
M  V30 134 H      -1.9730    55.0090    -4.2300 0 CHG=0 CFG=0
M  V30 135 H      -1.1920    53.6640    -3.9980 0 CHG=0 CFG=0
M  V30 136 H      -2.0120    54.3100    -2.8220 0 CHG=0 CFG=0
M  V30 137 H      -1.1940    57.0880    -3.2060 0 CHG=0 CFG=0
M  V30 138 H      -1.1620    56.4500    -1.7690 0 CHG=0 CFG=0
M  V30 139 H       0.1330    57.1170    -2.3620 0 CHG=0 CFG=0
M  V30 140 N       3.1130    52.3810    -2.1510 0 CHG=0 CFG=0
M  V30 141 C       4.2650    51.7930    -1.5300 0 CHG=0 CFG=2
M  V30 142 C       5.4330    52.7750    -1.4720 0 CHG=0 CFG=0
M  V30 143 O       6.2600    52.8150    -2.3880 0 CHG=0 CFG=0
M  V30 144 C       4.7020    50.5990    -2.3230 0 CHG=0 CFG=0
M  V30 145 C       3.6380    49.5800    -2.4820 0 CHG=0 CFG=0
M  V30 146 N       3.4020    48.6030    -1.5430 0 CHG=0 CFG=0
M  V30 147 C       2.7350    49.3820    -3.4680 0 CHG=0 CFG=0
M  V30 148 C       2.3960    47.8470    -1.9430 0 CHG=0 CFG=0
M  V30 149 N       1.9720    48.3020    -3.1060 0 CHG=1 CFG=0
M  V30 150 H       3.2750    52.7070    -2.9310 0 CHG=0 CFG=0
M  V30 151 H       4.0440    51.5060    -0.6200 0 CHG=0 CFG=0
M  V30 152 H       4.9700    50.8910    -3.2080 0 CHG=0 CFG=0
M  V30 153 H       5.4510    50.1800    -1.8720 0 CHG=0 CFG=0
M  V30 154 H       3.8390    48.5020    -0.8090 0 CHG=0 CFG=0
M  V30 155 H       2.6430    49.8890    -4.2420 0 CHG=0 CFG=0
M  V30 156 H       2.0460    47.1180    -1.4840 0 CHG=0 CFG=0
M  V30 157 H       1.3270    47.9690    -3.5680 0 CHG=0 CFG=0
M  V30 158 N       5.4770    53.5460    -0.3830 0 CHG=0 CFG=0
M  V30 159 C       6.6020    54.3980     0.0120 0 CHG=0 CFG=2
M  V30 160 C       7.9730    53.8940    -0.3700 0 CHG=0 CFG=0
M  V30 161 O       8.3480    52.7870    -0.0320 0 CHG=0 CFG=0
M  V30 162 C       6.6560    54.4840     1.5220 0 CHG=0 CFG=2
M  V30 163 O       5.3740    54.8670     2.0380 0 CHG=0 CFG=0
M  V30 164 C       7.6750    55.4830     1.9390 0 CHG=0 CFG=0
M  V30 165 H       4.8250    53.5930     0.1750 0 CHG=0 CFG=0
M  V30 166 H       6.4820    55.3000    -0.3530 0 CHG=0 CFG=0
M  V30 167 H       6.9060    53.6200     1.8850 0 CHG=0 CFG=0
M  V30 168 H       5.1590    55.5990     1.7380 0 CHG=0 CFG=0
M  V30 169 H       7.7080    55.5360     2.8970 0 CHG=0 CFG=0
M  V30 170 H       8.5400    55.2260     1.6110 0 CHG=0 CFG=0
M  V30 171 H       7.4510    56.3470     1.5860 0 CHG=0 CFG=0
M  V30 172 N       8.7430    54.7260    -1.0520 0 CHG=0 CFG=0
M  V30 173 C      10.0880    54.3430    -1.4440 0 CHG=0 CFG=2
M  V30 174 C      10.9860    55.5770    -1.3730 0 CHG=0 CFG=0
M  V30 175 O      10.5160    56.7060    -1.5720 0 CHG=0 CFG=0
M  V30 176 C      10.0690    53.7760    -2.8610 0 CHG=0 CFG=0
M  V30 177 C       9.0440    52.6640    -3.0840 0 CHG=0 CFG=0
M  V30 178 C       9.6360    51.2790    -2.9840 0 CHG=0 CFG=0
M  V30 179 O      10.8060    51.1090    -2.6470 0 CHG=0 CFG=0
M  V30 180 N       8.8240    50.2730    -3.2750 0 CHG=0 CFG=0
M  V30 181 H       8.5110    55.5170    -1.2990 0 CHG=0 CFG=0
M  V30 182 H      10.4340    53.6600    -0.8320 0 CHG=0 CFG=0
M  V30 183 H       9.8630    54.4940    -3.4800 0 CHG=0 CFG=0
M  V30 184 H      10.9450    53.4130    -3.0620 0 CHG=0 CFG=0
M  V30 185 H       8.3470    52.7400    -2.4140 0 CHG=0 CFG=0
M  V30 186 H       8.6630    52.7610    -3.9700 0 CHG=0 CFG=0
M  V30 187 H       8.0100    50.4300    -3.5050 0 CHG=0 CFG=0
M  V30 188 H       9.1100    49.4630    -3.2340 0 CHG=0 CFG=0
M  V30 189 N      12.2710    55.3630    -1.0800 0 CHG=0 CFG=0
M  V30 190 C      13.2440    56.4630    -0.9880 0 CHG=0 CFG=2
M  V30 191 C      14.2280    56.5020    -2.1640 0 CHG=0 CFG=0
M  V30 192 O      14.8840    55.5020    -2.4870 0 CHG=0 CFG=0
M  V30 193 C      14.0040    56.3920     0.3360 0 CHG=0 CFG=0
M  V30 194 C      13.5500    57.3870     1.4100 0 CHG=0 CFG=0
M  V30 195 C      12.0880    57.8450     1.2260 0 CHG=0 CFG=0
M  V30 196 C      13.7480    56.7810     2.8050 0 CHG=0 CFG=0
M  V30 197 H      12.6090    54.5870    -0.9290 0 CHG=0 CFG=0
M  V30 198 H      12.7510    57.3100    -0.9940 0 CHG=0 CFG=0
M  V30 199 H      13.8980    55.5000     0.7030 0 CHG=0 CFG=0
M  V30 200 H      14.9430    56.5600     0.1610 0 CHG=0 CFG=0
M  V30 201 H      14.1110    58.1760     1.3540 0 CHG=0 CFG=0
M  V30 202 H      11.8640    58.4630     1.9240 0 CHG=0 CFG=0
M  V30 203 H      12.0000    58.2710     0.3700 0 CHG=0 CFG=0
M  V30 204 H      11.5130    57.0770     1.2700 0 CHG=0 CFG=0
M  V30 205 H      13.4600    57.4150     3.4650 0 CHG=0 CFG=0
M  V30 206 H      13.2270    55.9770     2.8730 0 CHG=0 CFG=0
M  V30 207 H      14.6790    56.5790     2.9280 0 CHG=0 CFG=0
M  V30 208 N      14.3360    57.6800    -2.7770 0 CHG=0 CFG=0
M  V30 209 C      15.0250    57.8350    -4.0540 0 CHG=0 CFG=2
M  V30 210 C      16.4830    58.2800    -3.9170 0 CHG=0 CFG=0
M  V30 211 O      16.8800    58.8550    -2.9000 0 CHG=0 CFG=0
M  V30 212 C      14.3060    58.8730    -4.9270 0 CHG=0 CFG=0
M  V30 213 C      14.7070    58.7150    -6.3880 0 CHG=0 CFG=0
M  V30 214 C      12.8020    58.7380    -4.7800 0 CHG=0 CFG=0
M  V30 215 H      14.0130    58.4140    -2.4670 0 CHG=0 CFG=0
M  V30 216 H      15.0130    56.9780    -4.5290 0 CHG=0 CFG=0
M  V30 217 H      14.5630    59.7730    -4.6350 0 CHG=0 CFG=0
M  V30 218 H      14.2450    59.3740    -6.9110 0 CHG=0 CFG=0
M  V30 219 H      15.6550    58.8390    -6.4670 0 CHG=0 CFG=0
M  V30 220 H      14.4660    57.8340    -6.6840 0 CHG=0 CFG=0
M  V30 221 H      12.3740    59.3960    -5.3340 0 CHG=0 CFG=0
M  V30 222 H      12.5390    57.8570    -5.0560 0 CHG=0 CFG=0
M  V30 223 H      12.5640    58.8790    -3.8610 0 CHG=0 CFG=0
M  V30 224 N      17.2620    58.0140    -4.9670 0 CHG=0 CFG=0
M  V30 225 C      18.6750    58.4040    -5.0580 0 CHG=0 CFG=2
M  V30 226 C      18.9380    59.4460    -6.1670 0 CHG=0 CFG=0
M  V30 227 O      18.5850    59.2410    -7.3320 0 CHG=0 CFG=0
M  V30 228 C      19.5260    57.1500    -5.3080 0 CHG=0 CFG=0
M  V30 229 C      20.9830    57.4670    -5.5900 0 CHG=0 CFG=0
M  V30 230 O      21.5380    56.8570    -6.5310 0 CHG=0 CFG=0
M  V30 231 O      21.5720    58.3040    -4.8680 0 CHG=0 CFG=0
M  V30 232 H      16.9850    57.5920    -5.6640 0 CHG=0 CFG=0
M  V30 233 H      18.9540    58.7950    -4.2040 0 CHG=0 CFG=0
M  V30 234 H      19.4900    56.5840    -4.5210 0 CHG=0 CFG=0
M  V30 235 H      19.1690    56.6750    -6.0750 0 CHG=0 CFG=0
M  V30 236 N      19.5590    60.5590    -5.7870 0 CHG=0 CFG=0
M  V30 237 C      19.9830    61.5920    -6.7310 0 CHG=0 CFG=2
M  V30 238 C      20.4650    60.9810    -8.0370 0 CHG=0 CFG=0
M  V30 239 O      19.9650    61.2980    -9.1170 0 CHG=0 CFG=0
M  V30 240 C      21.1340    62.4120    -6.1150 0 CHG=0 CFG=0
M  V30 241 C      21.8240    63.4200    -7.0690 0 CHG=0 CFG=0
M  V30 242 S      23.3530    64.1830    -6.4210 0 CHG=0 CFG=0
M  V30 243 C      23.6800    65.4150    -7.6820 0 CHG=0 CFG=0
M  V30 244 H      19.7520    60.7440    -4.9690 0 CHG=0 CFG=0
M  V30 245 H      19.2330    62.1970    -6.9110 0 CHG=0 CFG=0
M  V30 246 H      20.7840    62.9160    -5.3640 0 CHG=0 CFG=0
M  V30 247 H      21.8150    61.7960    -5.8020 0 CHG=0 CFG=0
M  V30 248 H      22.0540    62.9580    -7.8910 0 CHG=0 CFG=0
M  V30 249 H      21.2000    64.1360    -7.2640 0 CHG=0 CFG=0
M  V30 250 H      23.7970    64.9730    -8.5270 0 CHG=0 CFG=0
M  V30 251 H      22.9360    66.0190    -7.7290 0 CHG=0 CFG=0
M  V30 252 H      24.4790    65.8940    -7.4500 0 CHG=0 CFG=0
M  V30 253 N      21.4490    60.0980    -7.9150 0 CHG=0 CFG=0
M  V30 254 C      22.1740    59.5740    -9.0610 0 CHG=0 CFG=2
M  V30 255 C      21.2530    59.1980   -10.2150 0 CHG=0 CFG=0
M  V30 256 O      21.0970    59.9680   -11.1610 0 CHG=0 CFG=0
M  V30 257 C      23.0170    58.3670    -8.6430 0 CHG=0 CFG=0
M  V30 258 O      23.7260    58.6470    -7.4490 0 CHG=0 CFG=0
M  V30 259 H      21.7200    59.7820    -7.1630 0 CHG=0 CFG=0
M  V30 260 H      22.7880    60.2660    -9.3860 0 CHG=0 CFG=0
M  V30 261 H      22.4310    57.6080    -8.4930 0 CHG=0 CFG=0
M  V30 262 H      23.6510    58.1640    -9.3490 0 CHG=0 CFG=0
M  V30 263 H      24.1760    57.9970    -7.2310 0 CHG=0 CFG=0
M  V30 264 N      20.6280    58.0290   -10.1270 0 CHG=0 CFG=0
M  V30 265 C      19.9930    57.4280   -11.2980 0 CHG=0 CFG=2
M  V30 266 C      18.5700    57.9040   -11.6310 0 CHG=0 CFG=0
M  V30 267 O      17.8940    58.6010   -10.8600 0 CHG=0 CFG=0
M  V30 268 C      19.9870    55.9050   -11.1650 0 CHG=0 CFG=0
M  V30 269 C      21.3630    55.2700   -11.2200 0 CHG=0 CFG=0
M  V30 270 S      21.5120    53.8640   -10.1010 0 CHG=0 CFG=0
M  V30 271 C      21.3760    54.7090    -8.5230 0 CHG=0 CFG=0
M  V30 272 H      20.5570    57.5640    -9.4070 0 CHG=0 CFG=0
M  V30 273 H      20.5560    57.6370   -12.0720 0 CHG=0 CFG=0
M  V30 274 H      19.5870    55.6680   -10.3140 0 CHG=0 CFG=0
M  V30 275 H      19.4610    55.5310   -11.8890 0 CHG=0 CFG=0
M  V30 276 H      21.5320    54.9570   -12.1220 0 CHG=0 CFG=0
M  V30 277 H      22.0270    55.9300   -10.9660 0 CHG=0 CFG=0
M  V30 278 H      21.4410    54.0630    -7.8160 0 CHG=0 CFG=0
M  V30 279 H      22.0890    55.3490    -8.4490 0 CHG=0 CFG=0
M  V30 280 H      20.5280    55.1570    -8.4810 0 CHG=0 CFG=0
M  V30 281 N      18.1410    57.4970   -12.8170 0 CHG=0 CFG=0
M  V30 282 C      16.8010    57.7610   -13.2930 0 CHG=0 CFG=2
M  V30 283 C      15.8560    56.6720   -12.8200 0 CHG=0 CFG=0
M  V30 284 O      16.2600    55.5240   -12.6090 0 CHG=0 CFG=0
M  V30 285 C      16.7520    57.7760   -14.8220 0 CHG=0 CFG=2
M  V30 286 O      17.0250    56.4560   -15.3250 0 CHG=0 CFG=0
M  V30 287 C      17.7560    58.7760   -15.3730 0 CHG=0 CFG=0
M  V30 288 H      18.6240    57.0560   -13.3760 0 CHG=0 CFG=0
M  V30 289 H      16.4880    58.6260   -12.9550 0 CHG=0 CFG=0
M  V30 290 H      15.8670    58.0490   -15.1090 0 CHG=0 CFG=0
M  V30 291 H      17.7690    56.2110   -15.0820 0 CHG=0 CFG=0
M  V30 292 H      17.5540    59.6560   -15.0490 0 CHG=0 CFG=0
M  V30 293 H      18.6430    58.5370   -15.0940 0 CHG=0 CFG=0
M  V30 294 H      17.7220    58.7810   -16.3320 0 CHG=0 CFG=0
M  V30 295 N      14.5880    57.0430   -12.6810 0 CHG=0 CFG=0
M  V30 296 C      13.5630    56.1300   -12.2060 0 CHG=0 CFG=2
M  V30 297 C      13.6660    54.7760   -12.8820 0 CHG=0 CFG=0
M  V30 298 O      13.5620    53.7450   -12.2250 0 CHG=0 CFG=0
M  V30 299 C      12.1960    56.7570   -12.4220 0 CHG=0 CFG=0
M  V30 300 C      12.0470    58.0120   -11.6090 0 CHG=0 CFG=0
M  V30 301 C      12.1940    57.9760   -10.2290 0 CHG=0 CFG=0
M  V30 302 C      11.7820    59.2300   -12.2070 0 CHG=0 CFG=0
M  V30 303 C      12.0670    59.1130    -9.4600 0 CHG=0 CFG=0
M  V30 304 C      11.6520    60.3840   -11.4440 0 CHG=0 CFG=0
M  V30 305 C      11.7960    60.3160   -10.0650 0 CHG=0 CFG=0
M  V30 306 O      11.6710    61.4480    -9.2780 0 CHG=0 CFG=0
M  V30 307 H      14.2950    57.8320   -12.8580 0 CHG=0 CFG=0
M  V30 308 H      13.6820    55.9940   -11.2430 0 CHG=0 CFG=0
M  V30 309 H      12.0910    56.9860   -13.3590 0 CHG=0 CFG=0
M  V30 310 H      11.5080    56.1320   -12.1470 0 CHG=0 CFG=0
M  V30 311 H      12.3750    57.1640    -9.8120 0 CHG=0 CFG=0
M  V30 312 H      11.6830    59.2770   -13.1310 0 CHG=0 CFG=0
M  V30 313 H      12.1640    59.0660    -8.5370 0 CHG=0 CFG=0
M  V30 314 H      11.4690    61.1970   -11.8550 0 CHG=0 CFG=0
M  V30 315 H      10.9240    61.7730    -9.3720 0 CHG=0 CFG=0
M  V30 316 N      13.8980    54.7850   -14.1890 0 CHG=0 CFG=0
M  V30 317 C      14.0710    53.5600   -14.9410 0 CHG=0 CFG=0
M  V30 318 C      15.1240    52.6960   -14.2910 0 CHG=0 CFG=0
M  V30 319 O      15.0170    51.4680   -14.2400 0 CHG=0 CFG=0
M  V30 320 H      13.9600    55.4990   -14.6650 0 CHG=0 CFG=0
M  V30 321 H      13.2350    53.0690   -14.9700 0 CHG=0 CFG=0
M  V30 322 H      14.3480    53.7640   -15.8480 0 CHG=0 CFG=0
M  V30 323 N      16.1630    53.3410   -13.7860 0 CHG=0 CFG=0
M  V30 324 C      17.2280    52.6050   -13.1290 0 CHG=0 CFG=2
M  V30 325 C      16.7550    51.9480   -11.8390 0 CHG=0 CFG=0
M  V30 326 O      16.9420    50.7440   -11.6340 0 CHG=0 CFG=0
M  V30 327 C      18.4130    53.5300   -12.8490 0 CHG=0 CFG=0
M  V30 328 C      19.4590    53.4980   -13.9310 0 CHG=0 CFG=0
M  V30 329 C      19.9080    52.0830   -14.2260 0 CHG=0 CFG=0
M  V30 330 O      19.2460    51.3490   -14.9660 0 CHG=0 CFG=0
M  V30 331 N      21.0240    51.6800   -13.6280 0 CHG=0 CFG=0
M  V30 332 H      16.2750    54.1930   -13.8090 0 CHG=0 CFG=0
M  V30 333 H      17.5370    51.8950   -13.7290 0 CHG=0 CFG=0
M  V30 334 H      18.0890    54.4410   -12.7740 0 CHG=0 CFG=0
M  V30 335 H      18.8340    53.2590   -12.0180 0 CHG=0 CFG=0
M  V30 336 H      19.0890    53.8760   -14.7450 0 CHG=0 CFG=0
M  V30 337 H      20.2320    54.0090   -13.6440 0 CHG=0 CFG=0
M  V30 338 H      21.4490    52.2150   -13.1060 0 CHG=0 CFG=0
M  V30 339 H      21.3220    50.8850   -13.7630 0 CHG=0 CFG=0
M  V30 340 N      16.1270    52.7490   -10.9860 0 CHG=0 CFG=0
M  V30 341 C      15.7680    52.3150    -9.6440 0 CHG=0 CFG=2
M  V30 342 C      14.4070    51.6020    -9.5670 0 CHG=0 CFG=0
M  V30 343 O      14.1930    50.7690    -8.6790 0 CHG=0 CFG=0
M  V30 344 C      15.7740    53.5210    -8.7110 0 CHG=0 CFG=0
M  V30 345 C      17.0340    54.3550    -8.8040 0 CHG=0 CFG=0
M  V30 346 C      16.9920    55.5550    -7.8920 0 CHG=0 CFG=0
M  V30 347 O      17.0840    55.4250    -6.6730 0 CHG=0 CFG=0
M  V30 348 N      16.8310    56.7380    -8.4770 0 CHG=0 CFG=0
M  V30 349 H      15.8970    53.5590   -11.1630 0 CHG=0 CFG=0
M  V30 350 H      16.4500    51.6880    -9.3240 0 CHG=0 CFG=0
M  V30 351 H      15.0230    54.0930    -8.9340 0 CHG=0 CFG=0
M  V30 352 H      15.6910    53.2100    -7.7960 0 CHG=0 CFG=0
M  V30 353 H      17.7950    53.8100    -8.5510 0 CHG=0 CFG=0
M  V30 354 H      17.1380    54.6720    -9.7150 0 CHG=0 CFG=0
M  V30 355 H      16.7570    56.7870    -9.3330 0 CHG=0 CFG=0
M  V30 356 H      16.8000    57.4530    -8.0010 0 CHG=0 CFG=0
M  V30 357 N      13.5060    51.9190   -10.5010 0 CHG=0 CFG=0
M  V30 358 C      12.1380    51.3910   -10.4870 0 CHG=0 CFG=2
M  V30 359 C      11.8160    50.4720   -11.6590 0 CHG=0 CFG=0
M  V30 360 O      10.7580    49.8440   -11.6780 0 CHG=0 CFG=0
M  V30 361 C      11.1260    52.5330   -10.5260 0 CHG=0 CFG=0
M  V30 362 C      11.0150    53.3170    -9.2470 0 CHG=0 CFG=0
M  V30 363 C      11.5030    52.8240    -8.0450 0 CHG=0 CFG=0
M  V30 364 C      10.4000    54.5630    -9.2490 0 CHG=0 CFG=0
M  V30 365 C      11.3790    53.5670    -6.8710 0 CHG=0 CFG=0
M  V30 366 C      10.2800    55.3110    -8.0780 0 CHG=0 CFG=0
M  V30 367 C      10.7650    54.8090    -6.8900 0 CHG=0 CFG=0
M  V30 368 H      13.6650    52.4450   -11.1620 0 CHG=0 CFG=0
M  V30 369 H      11.9980    50.8870    -9.6580 0 CHG=0 CFG=0
M  V30 370 H      11.3830    53.1510   -11.2280 0 CHG=0 CFG=0
M  V30 371 H      10.2500    52.1640   -10.7210 0 CHG=0 CFG=0
M  V30 372 H      11.9140    51.9900    -8.0220 0 CHG=0 CFG=0
M  V30 373 H      10.0680    54.9070   -10.0470 0 CHG=0 CFG=0
M  V30 374 H      11.7120    53.2270    -6.0710 0 CHG=0 CFG=0
M  V30 375 H       9.8660    56.1430    -8.0970 0 CHG=0 CFG=0
M  V30 376 H      10.6880    55.3050    -6.1070 0 CHG=0 CFG=0
M  V30 377 N      12.7120    50.3880   -12.6360 0 CHG=0 CFG=0
M  V30 378 C      12.3730    49.7820   -13.9150 0 CHG=0 CFG=0
M  V30 379 C      11.4630    50.7290   -14.6860 0 CHG=0 CFG=0
M  V30 380 O      11.3580    51.9200   -14.3480 0 CHG=0 CFG=0
M  V30 381 H      13.5220    50.6750   -12.5830 0 CHG=0 CFG=0
M  V30 382 H      13.1770    49.6210   -14.4330 0 CHG=0 CFG=0
M  V30 383 H      11.9110    48.9410   -13.7740 0 CHG=0 CFG=0
M  V30 384 N      10.7840    50.2130   -15.7220 0 CHG=0 CFG=0
M  V30 385 C       9.8650    51.0870   -16.4630 0 CHG=0 CFG=2
M  V30 386 C       8.9560    51.8360   -15.4950 0 CHG=0 CFG=0
M  V30 387 O       8.3120    51.2140   -14.6410 0 CHG=0 CFG=0
M  V30 388 C       9.0710    50.1080   -17.3350 0 CHG=0 CFG=0
M  V30 389 C       9.9980    48.9380   -17.5340 0 CHG=0 CFG=0
M  V30 390 C      10.7740    48.8290   -16.2320 0 CHG=0 CFG=0
M  V30 391 H      10.3560    51.7200   -17.0260 0 CHG=0 CFG=0
M  V30 392 H       8.2650    49.8340   -16.8710 0 CHG=0 CFG=0
M  V30 393 H       8.8560    50.5250   -18.1840 0 CHG=0 CFG=0
M  V30 394 H       9.4800    48.1330   -17.6940 0 CHG=0 CFG=0
M  V30 395 H      10.5960    49.1160   -18.2770 0 CHG=0 CFG=0
M  V30 396 H      10.3130    48.2430   -15.6110 0 CHG=0 CFG=0
M  V30 397 H      11.6790    48.5250   -16.4020 0 CHG=0 CFG=0
M  V30 398 N       8.9400    53.1600   -15.6190 0 CHG=0 CFG=0
M  V30 399 C       8.2470    54.0380   -14.6790 0 CHG=0 CFG=2
M  V30 400 C       7.3740    55.0460   -15.4230 0 CHG=0 CFG=0
M  V30 401 O       7.4420    55.1610   -16.6420 0 CHG=0 CFG=0
M  V30 402 C       9.2790    54.7860   -13.8140 0 CHG=0 CFG=2
M  V30 403 O      10.0010    53.8330   -13.0230 0 CHG=0 CFG=0
M  V30 404 C       8.6270    55.8350   -12.9020 0 CHG=0 CFG=0
M  V30 405 H       9.3330    53.5840   -16.2560 0 CHG=0 CFG=0
M  V30 406 H       7.6750    53.5030   -14.0910 0 CHG=0 CFG=0
M  V30 407 H       9.9030    55.2460   -14.3970 0 CHG=0 CFG=0
M  V30 408 H      10.3880    53.3000   -13.5100 0 CHG=0 CFG=0
M  V30 409 H       9.2990    56.2790   -12.3790 0 CHG=0 CFG=0
M  V30 410 H       8.1620    56.4870   -13.4310 0 CHG=0 CFG=0
M  V30 411 H       8.0010    55.4100   -12.3090 0 CHG=0 CFG=0
M  V30 412 N       6.5240    55.7480   -14.6880 0 CHG=0 CFG=0
M  V30 413 C       5.6900    56.7990   -15.2570 0 CHG=0 CFG=2
M  V30 414 C       5.4120    57.8560   -14.1910 0 CHG=0 CFG=0
M  V30 415 O       5.9840    57.8150   -13.0950 0 CHG=0 CFG=0
M  V30 416 C       4.3700    56.2120   -15.7570 0 CHG=0 CFG=0
M  V30 417 C       4.5070    55.2890   -16.9490 0 CHG=0 CFG=0
M  V30 418 C       4.6630    55.7980   -18.2300 0 CHG=0 CFG=0
M  V30 419 C       4.4690    53.9130   -16.7950 0 CHG=0 CFG=0
M  V30 420 C       4.7870    54.9630   -19.3240 0 CHG=0 CFG=0
M  V30 421 C       4.5920    53.0710   -17.8810 0 CHG=0 CFG=0
M  V30 422 C       4.7480    53.5990   -19.1480 0 CHG=0 CFG=0
M  V30 423 O       4.8690    52.7660   -20.2490 0 CHG=0 CFG=0
M  V30 424 H       6.4090    55.6340   -13.8430 0 CHG=0 CFG=0
M  V30 425 H       6.1540    57.2220   -16.0090 0 CHG=0 CFG=0
M  V30 426 H       3.9630    55.7050   -15.0370 0 CHG=0 CFG=0
M  V30 427 H       3.7850    56.9410   -16.0150 0 CHG=0 CFG=0
M  V30 428 H       4.6900    56.7190   -18.3540 0 CHG=0 CFG=0
M  V30 429 H       4.3640    53.5510   -15.9450 0 CHG=0 CFG=0
M  V30 430 H       4.8920    55.3220   -20.1760 0 CHG=0 CFG=0
M  V30 431 H       4.5650    52.1490   -17.7610 0 CHG=0 CFG=0
M  V30 432 H       5.5880    52.8960   -20.6220 0 CHG=0 CFG=0
M  V30 433 N       4.5290    58.7930   -14.5210 0 CHG=0 CFG=0
M  V30 434 C       4.0970    59.8330   -13.5960 0 CHG=0 CFG=2
M  V30 435 C       3.1900    60.7710   -14.3770 0 CHG=0 CFG=0
M  V30 436 O       3.6160    61.3640   -15.3730 0 CHG=0 CFG=0
M  V30 437 C       5.3020    60.5930   -13.0400 0 CHG=0 CFG=0
M  V30 438 C       5.0960    61.8350   -12.1690 0 CHG=0 CFG=0
M  V30 439 C       3.6430    62.0930   -11.8440 0 CHG=0 CFG=0
M  V30 440 C       5.8990    61.7060   -10.8880 0 CHG=0 CFG=0
M  V30 441 H       4.1570    58.8480   -15.2940 0 CHG=0 CFG=0
M  V30 442 H       3.5920    59.4400   -12.8540 0 CHG=0 CFG=0
M  V30 443 H       5.8180    59.9680   -12.5080 0 CHG=0 CFG=0
M  V30 444 H       5.8400    60.8750   -13.7960 0 CHG=0 CFG=0
M  V30 445 H       5.4310    62.6090   -12.6490 0 CHG=0 CFG=0
M  V30 446 H       3.2900    61.3370   -11.3700 0 CHG=0 CFG=0
M  V30 447 H       3.5800    62.8810   -11.2990 0 CHG=0 CFG=0
M  V30 448 H       3.1580    62.2220   -12.6630 0 CHG=0 CFG=0
M  V30 449 H       5.7610    62.4910   -10.3530 0 CHG=0 CFG=0
M  V30 450 H       5.6030    60.9270   -10.4120 0 CHG=0 CFG=0
M  V30 451 H       6.8290    61.6210   -11.1110 0 CHG=0 CFG=0
M  V30 452 N       1.9420    60.9020   -13.9320 0 CHG=0 CFG=0
M  V30 453 C       0.9560    61.7270   -14.6350 0 CHG=0 CFG=2
M  V30 454 C       1.0860    61.5710   -16.1530 0 CHG=0 CFG=0
M  V30 455 O       1.2230    62.5600   -16.8820 0 CHG=0 CFG=0
M  V30 456 C       1.0890    63.1990   -14.2350 0 CHG=0 CFG=0
M  V30 457 C       0.5580    63.4730   -12.8410 0 CHG=0 CFG=0
M  V30 458 O       1.3440    63.3800   -11.8790 0 CHG=0 CFG=0
M  V30 459 O      -0.6450    63.7850   -12.7090 0 CHG=0 CFG=0
M  V30 460 H       1.6380    60.5230   -13.2220 0 CHG=0 CFG=0
M  V30 461 H       0.0580    61.4290   -14.3800 0 CHG=0 CFG=0
M  V30 462 H       2.0260    63.4490   -14.2540 0 CHG=0 CFG=0
M  V30 463 H       0.5860    63.7430   -14.8600 0 CHG=0 CFG=0
M  V30 464 N       1.0440    60.3160   -16.6100 0 CHG=0 CFG=0
M  V30 465 C       1.1230    59.9810   -18.0240 0 CHG=0 CFG=0
M  V30 466 C       2.5210    60.1840   -18.5660 0 CHG=0 CFG=0
M  V30 467 O       3.1010    59.2900   -19.1890 0 CHG=0 CFG=0
M  V30 468 H       0.9670    59.6270   -16.1010 0 CHG=0 CFG=0
M  V30 469 H       0.8710    59.0530   -18.1540 0 CHG=0 CFG=0
M  V30 470 H       0.5110    60.5420   -18.5270 0 CHG=0 CFG=0
M  V30 471 N       3.0460    61.3850   -18.3300 0 CHG=0 CFG=0
M  V30 472 C       4.4210    61.7220   -18.6630 0 CHG=0 CFG=2
M  V30 473 C       5.3810    60.6130   -18.2450 0 CHG=0 CFG=0
M  V30 474 O       5.9580    60.6790   -17.1620 0 CHG=0 CFG=0
M  V30 475 C       4.8200    63.0420   -17.9880 0 CHG=0 CFG=0
M  V30 476 H       2.6120    62.0330   -17.9690 0 CHG=0 CFG=0
M  V30 477 H       4.4960    61.8410   -19.6330 0 CHG=0 CFG=0
M  V30 478 H       5.7280    63.2480   -18.2180 0 CHG=0 CFG=0
M  V30 479 H       4.2370    63.7390   -18.2960 0 CHG=0 CFG=0
M  V30 480 H       4.7370    62.9430   -17.0360 0 CHG=0 CFG=0
M  V30 481 N       5.5360    59.5920   -19.0910 0 CHG=0 CFG=0
M  V30 482 C       6.5970    58.6090   -18.9070 0 CHG=0 CFG=2
M  V30 483 C       7.8320    59.3530   -18.4050 0 CHG=0 CFG=0
M  V30 484 O       8.3110    60.2740   -19.0670 0 CHG=0 CFG=0
M  V30 485 C       6.8930    57.8980   -20.2360 0 CHG=0 CFG=0
M  V30 486 C       8.0880    56.9450   -20.1560 0 CHG=0 CFG=0
M  V30 487 O       9.0370    57.2090   -19.3740 0 CHG=0 CFG=0
M  V30 488 O       8.0800    55.9310   -20.8920 0 CHG=0 CFG=0
M  V30 489 H       5.0380    59.4490   -19.7780 0 CHG=0 CFG=0
M  V30 490 H       6.3300    57.9440   -18.2400 0 CHG=0 CFG=0
M  V30 491 H       6.1150    57.3810   -20.4960 0 CHG=0 CFG=0
M  V30 492 H       7.0880    58.5650   -20.9140 0 CHG=0 CFG=0
M  V30 493 N       8.3240    58.9850   -17.2250 0 CHG=0 CFG=0
M  V30 494 C       9.5080    59.6260   -16.6690 0 CHG=0 CFG=2
M  V30 495 C      10.5890    58.5850   -16.4250 0 CHG=0 CFG=0
M  V30 496 O      11.4890    58.8030   -15.6170 0 CHG=0 CFG=0
M  V30 497 C       9.2090    60.3580   -15.3310 0 CHG=0 CFG=0
M  V30 498 C      10.1830    61.4740   -15.1200 0 CHG=0 CFG=0
M  V30 499 C       7.8200    60.9260   -15.3180 0 CHG=0 CFG=0
M  V30 500 H       7.9900    58.3670   -16.7290 0 CHG=0 CFG=0
M  V30 501 H       9.8520    60.2830   -17.3090 0 CHG=0 CFG=0
M  V30 502 H       9.2930    59.7270   -14.5860 0 CHG=0 CFG=0
M  V30 503 H       9.9810    61.9120   -14.2900 0 CHG=0 CFG=0
M  V30 504 H      11.0720    61.1110   -15.0920 0 CHG=0 CFG=0
M  V30 505 H      10.1070    62.0970   -15.8470 0 CHG=0 CFG=0
M  V30 506 H       7.6720    61.3690   -14.4800 0 CHG=0 CFG=0
M  V30 507 H       7.7330    61.5530   -16.0400 0 CHG=0 CFG=0
M  V30 508 H       7.1900    60.2110   -15.4270 0 CHG=0 CFG=0
M  V30 509 N      10.5020    57.4570   -17.1310 0 CHG=0 CFG=0
M  V30 510 C      11.4280    56.3450   -16.9060 0 CHG=0 CFG=2
M  V30 511 C      12.8740    56.8070   -16.8610 0 CHG=0 CFG=0
M  V30 512 O      13.5230    56.7040   -15.8250 0 CHG=0 CFG=0
M  V30 513 C      11.2910    55.2290   -17.9650 0 CHG=0 CFG=2
M  V30 514 O      10.1920    54.3820   -17.6210 0 CHG=0 CFG=0
M  V30 515 C      12.5420    54.3860   -18.0220 0 CHG=0 CFG=0
M  V30 516 H       9.9180    57.3110   -17.7440 0 CHG=0 CFG=0
M  V30 517 H      11.2220    55.9460   -16.0340 0 CHG=0 CFG=0
M  V30 518 H      11.1400    55.6220   -18.8380 0 CHG=0 CFG=0
M  V30 519 H       9.4980    54.8180   -17.5960 0 CHG=0 CFG=0
M  V30 520 H      12.4430    53.6970   -18.6840 0 CHG=0 CFG=0
M  V30 521 H      13.2960    54.9340   -18.2520 0 CHG=0 CFG=0
M  V30 522 H      12.7020    53.9780   -17.1680 0 CHG=0 CFG=0
M  V30 523 N      13.3810    57.3190   -17.9760 0 CHG=0 CFG=0
M  V30 524 C      14.7720    57.7610   -18.0300 0 CHG=0 CFG=2
M  V30 525 C      14.9580    59.2370   -17.6050 0 CHG=0 CFG=0
M  V30 526 O      15.5350    60.0260   -18.3530 0 CHG=0 CFG=0
M  V30 527 C      15.3430    57.5300   -19.4360 0 CHG=0 CFG=0
M  V30 528 C      15.3380    56.0720   -19.8950 0 CHG=0 CFG=0
M  V30 529 C      16.2550    55.1930   -19.0350 0 CHG=0 CFG=0
M  V30 530 C      15.4970    54.0360   -18.3850 0 CHG=0 CFG=0
M  V30 531 N      16.3750    52.9750   -17.8170 0 CHG=1 CFG=0
M  V30 532 H      12.9460    57.4220   -18.7110 0 CHG=0 CFG=0
M  V30 533 H      15.2930    57.2110   -17.4080 0 CHG=0 CFG=0
M  V30 534 H      14.8170    58.0400   -20.0720 0 CHG=0 CFG=0
M  V30 535 H      16.2630    57.8390   -19.4510 0 CHG=0 CFG=0
M  V30 536 H      14.4360    55.7210   -19.8300 0 CHG=0 CFG=0
M  V30 537 H      15.6490    56.0250   -20.8130 0 CHG=0 CFG=0
M  V30 538 H      16.9540    54.8200   -19.5950 0 CHG=0 CFG=0
M  V30 539 H      16.6450    55.7330   -18.3300 0 CHG=0 CFG=0
M  V30 540 H      14.9530    54.3870   -17.6630 0 CHG=0 CFG=0
M  V30 541 H      14.9280    53.6220   -19.0530 0 CHG=0 CFG=0
M  V30 542 H      15.8790    52.3310   -17.4540 0 CHG=0 CFG=0
M  V30 543 H      16.8810    52.6220   -18.4590 0 CHG=0 CFG=0
M  V30 544 H      16.9030    53.3210   -17.1900 0 CHG=0 CFG=0
M  V30 545 N      14.4740    59.6000   -16.4110 0 CHG=0 CFG=0
M  V30 546 C      14.7150    60.9300   -15.8310 0 CHG=0 CFG=2
M  V30 547 C      14.9780    60.8330   -14.3210 0 CHG=0 CFG=0
M  V30 548 O      14.6190    59.8450   -13.6780 0 CHG=0 CFG=0
M  V30 549 C      13.5200    61.9200   -16.0910 0 CHG=0 CFG=1
M  V30 550 C      12.9690    62.6790   -14.8560 0 CHG=0 CFG=0
M  V30 551 C      12.7620    61.7100   -17.4290 0 CHG=0 CFG=0
M  V30 552 C      13.5570    64.0490   -14.6510 0 CHG=0 CFG=0
M  V30 553 H      13.9960    59.0870   -15.9120 0 CHG=0 CFG=0
M  V30 554 H      15.5140    61.3140   -16.2480 0 CHG=0 CFG=0
M  V30 555 H      12.9430    61.2070   -15.7740 0 CHG=0 CFG=0
M  V30 556 H      12.0100    62.7830   -14.9590 0 CHG=0 CFG=0
M  V30 557 H      13.1580    62.1560   -14.0620 0 CHG=0 CFG=0
M  V30 558 H      12.3950    60.8230   -17.4440 0 CHG=0 CFG=0
M  V30 559 H      13.3780    61.8220   -18.1580 0 CHG=0 CFG=0
M  V30 560 H      12.0570    62.3580   -17.4930 0 CHG=0 CFG=0
M  V30 561 H      14.5060    63.9660   -14.5320 0 CHG=0 CFG=0
M  V30 562 H      13.1620    64.4430   -13.8700 0 CHG=0 CFG=0
M  V30 563 H      13.3680    64.5880   -15.4220 0 CHG=0 CFG=0
M  V30 564 N      15.6020    61.8670   -13.7640 0 CHG=0 CFG=0
M  V30 565 C      15.9790    61.8800   -12.3520 0 CHG=0 CFG=2
M  V30 566 C      14.9970    62.6230   -11.4330 0 CHG=0 CFG=0
M  V30 567 O      14.1150    63.3460   -11.9010 0 CHG=0 CFG=0
M  V30 568 C      17.3680    62.5070   -12.2100 0 CHG=0 CFG=0
M  V30 569 C      18.4830    61.7010   -12.8450 0 CHG=0 CFG=0
M  V30 570 C      19.8550    62.3110   -12.5580 0 CHG=0 CFG=0
M  V30 571 C      20.0360    63.6530   -13.2500 0 CHG=0 CFG=0
M  V30 572 N      21.4350    64.1500   -13.1380 0 CHG=1 CFG=0
M  V30 573 H      15.8210    62.5820   -14.1870 0 CHG=0 CFG=0
M  V30 574 H      16.0370    60.9540   -12.0360 0 CHG=0 CFG=0
M  V30 575 H      17.3590    63.3810   -12.6310 0 CHG=0 CFG=0
M  V30 576 H      17.5720    62.6010   -11.2660 0 CHG=0 CFG=0
M  V30 577 H      18.4700    60.8000   -12.4860 0 CHG=0 CFG=0
M  V30 578 H      18.3550    61.6800   -13.8060 0 CHG=0 CFG=0
M  V30 579 H      19.9490    62.4490   -11.6020 0 CHG=0 CFG=0
M  V30 580 H      20.5450    61.7100   -12.8780 0 CHG=0 CFG=0
M  V30 581 H      19.8230    63.5580   -14.1920 0 CHG=0 CFG=0
M  V30 582 H      19.4480    64.3060   -12.8380 0 CHG=0 CFG=0
M  V30 583 H      21.5120    64.9350   -13.5510 0 CHG=0 CFG=0
M  V30 584 H      21.6540    64.2510   -12.2810 0 CHG=0 CFG=0
M  V30 585 H      21.9950    63.5690   -13.5140 0 CHG=0 CFG=0
M  V30 586 N      15.1560    62.4270   -10.1110 0 CHG=0 CFG=0
M  V30 587 C      14.4210    63.0930    -9.0280 0 CHG=0 CFG=2
M  V30 588 C      14.3270    64.6150    -9.1320 0 CHG=0 CFG=0
M  V30 589 O      15.1750    65.2530    -9.7430 0 CHG=0 CFG=0
M  V30 590 C      15.2180    62.7020    -7.7770 0 CHG=0 CFG=0
M  V30 591 C      16.3970    61.8760    -8.2690 0 CHG=0 CFG=0
M  V30 592 C      15.9820    61.3350    -9.5770 0 CHG=0 CFG=0
M  V30 593 H      13.5160    62.7220    -8.9590 0 CHG=0 CFG=0
M  V30 594 H      15.5290    63.5020    -7.3260 0 CHG=0 CFG=0
M  V30 595 H      14.6570    62.1750    -7.1860 0 CHG=0 CFG=0
M  V30 596 H      17.1750    62.4460    -8.3670 0 CHG=0 CFG=0
M  V30 597 H      16.5750    61.1570    -7.6430 0 CHG=0 CFG=0
M  V30 598 H      16.7540    61.1820   -10.1440 0 CHG=0 CFG=0
M  V30 599 H      15.4530    60.5300    -9.4620 0 CHG=0 CFG=0
M  V30 600 N      13.3020    65.1820    -8.5090 0 CHG=0 CFG=0
M  V30 601 C      13.0180    66.5990    -8.6450 0 CHG=0 CFG=2
M  V30 602 C      13.4710    67.3970    -7.4270 0 CHG=0 CFG=0
M  V30 603 O      14.0710    66.8540    -6.4980 0 CHG=0 CFG=0
M  V30 604 C      11.5160    66.8010    -8.8650 0 CHG=0 CFG=0
M  V30 605 C      11.1740    67.4900   -10.1520 0 CHG=0 CFG=0
M  V30 606 N      12.0910    68.2180   -10.8830 0 CHG=0 CFG=0
M  V30 607 C      10.0110    67.5530   -10.8440 0 CHG=0 CFG=0
M  V30 608 C      11.5070    68.6990   -11.9660 0 CHG=0 CFG=0
M  V30 609 N      10.2450    68.3090   -11.9670 0 CHG=1 CFG=0
M  V30 610 H      12.7530    64.7620    -7.9970 0 CHG=0 CFG=0
M  V30 611 H      13.4900    66.9470    -9.4300 0 CHG=0 CFG=0
M  V30 612 H      11.0820    65.9330    -8.8690 0 CHG=0 CFG=0
M  V30 613 H      11.1640    67.3400    -8.1390 0 CHG=0 CFG=0
M  V30 614 H      12.9150    68.3390   -10.6670 0 CHG=0 CFG=0
M  V30 615 H       9.2040    67.1560   -10.6050 0 CHG=0 CFG=0
M  V30 616 H      11.9150    69.2240   -12.6170 0 CHG=0 CFG=0
M  V30 617 H       9.6630    68.5000   -12.5710 0 CHG=0 CFG=0
M  V30 618 N      13.1870    68.6970    -7.4560 0 CHG=0 CFG=0
M  V30 619 C      13.4230    69.5880    -6.3200 0 CHG=0 CFG=2
M  V30 620 C      12.0770    69.9720    -5.6700 0 CHG=0 CFG=0
M  V30 621 O      12.0480    70.6800    -4.6620 0 CHG=0 CFG=0
M  V30 622 C      14.2140    70.8760    -6.7550 0 CHG=0 CFG=0
M  V30 623 C      14.2430    71.9400    -5.6480 0 CHG=0 CFG=0
M  V30 624 C      15.6360    70.5270    -7.1780 0 CHG=0 CFG=0
M  V30 625 H      12.8490    69.0960    -8.1390 0 CHG=0 CFG=0
M  V30 626 H      13.9590    69.1150    -5.6490 0 CHG=0 CFG=0
M  V30 627 H      13.7640    71.2700    -7.5310 0 CHG=0 CFG=0
M  V30 628 H      14.7350    72.7020    -5.9600 0 CHG=0 CFG=0
M  V30 629 H      13.3420    72.1950    -5.4370 0 CHG=0 CFG=0
M  V30 630 H      14.6690    71.5700    -4.8710 0 CHG=0 CFG=0
M  V30 631 H      16.0910    71.3320    -7.4370 0 CHG=0 CFG=0
M  V30 632 H      16.0900    70.1170    -6.4380 0 CHG=0 CFG=0
M  V30 633 H      15.6010    69.9180    -7.9190 0 CHG=0 CFG=0
M  V30 634 N      10.9660    69.4940    -6.2390 0 CHG=0 CFG=0
M  V30 635 C       9.6290    69.8720    -5.7620 0 CHG=0 CFG=2
M  V30 636 C       8.7170    68.6950    -5.3930 0 CHG=0 CFG=0
M  V30 637 O       8.3610    68.5230    -4.2260 0 CHG=0 CFG=0
M  V30 638 C       8.9200    70.7520    -6.8120 0 CHG=0 CFG=0
M  V30 639 C       7.6200    71.3840    -6.2890 0 CHG=0 CFG=0
M  V30 640 O       6.9640    70.8490    -5.3930 0 CHG=0 CFG=0
M  V30 641 N       7.2520    72.5310    -6.8560 0 CHG=0 CFG=0
M  V30 642 H      10.9590    68.9490    -6.9040 0 CHG=0 CFG=0
M  V30 643 H       9.7370    70.4160    -4.9540 0 CHG=0 CFG=0
M  V30 644 H       9.5170    71.4700    -7.0760 0 CHG=0 CFG=0
M  V30 645 H       8.6980    70.2060    -7.5830 0 CHG=0 CFG=0
M  V30 646 H       7.7330    72.8760    -7.4790 0 CHG=0 CFG=0
M  V30 647 H       6.5320    72.9250    -6.5990 0 CHG=0 CFG=0
M  V30 648 N       8.3410    67.8940    -6.3880 0 CHG=0 CFG=0
M  V30 649 C       7.1690    67.0220    -6.2580 0 CHG=0 CFG=2
M  V30 650 C       7.4380    65.6450    -5.6410 0 CHG=0 CFG=0
M  V30 651 O       6.7130    64.6960    -5.9260 0 CHG=0 CFG=0
M  V30 652 C       6.4700    66.8470    -7.6210 0 CHG=0 CFG=0
M  V30 653 C       5.5130    67.9510    -7.9720 0 CHG=0 CFG=0
M  V30 654 N       4.3800    68.2250    -7.2330 0 CHG=0 CFG=0
M  V30 655 C       5.5080    68.8300    -9.0030 0 CHG=0 CFG=0
M  V30 656 C       3.7290    69.2360    -7.7840 0 CHG=0 CFG=0
M  V30 657 N       4.3920    69.6200    -8.8600 0 CHG=1 CFG=0
M  V30 658 H       8.7430    67.8340    -7.1450 0 CHG=0 CFG=0
M  V30 659 H       6.5300    67.4730    -5.6680 0 CHG=0 CFG=0
M  V30 660 H       7.1460    66.8110    -8.3150 0 CHG=0 CFG=0
M  V30 661 H       5.9690    66.0160    -7.6090 0 CHG=0 CFG=0
M  V30 662 H       4.1400    67.8100    -6.5200 0 CHG=0 CFG=0
M  V30 663 H       6.1450    68.8930    -9.6780 0 CHG=0 CFG=0
M  V30 664 H       2.9380    69.6100    -7.4690 0 CHG=0 CFG=0
M  V30 665 H       4.1630    70.2610    -9.3860 0 CHG=0 CFG=0
M  V30 666 N       8.4480    65.5200    -4.7870 0 CHG=0 CFG=0
M  V30 667 C       8.6040    64.2750    -4.0420 0 CHG=0 CFG=2
M  V30 668 C       7.4000    64.1140    -3.1080 0 CHG=0 CFG=0
M  V30 669 O       6.7490    65.0970    -2.7330 0 CHG=0 CFG=0
M  V30 670 C       9.9160    64.2300    -3.2580 0 CHG=0 CFG=0
M  V30 671 C       9.8100    64.7080    -1.8190 0 CHG=0 CFG=0
M  V30 672 C      10.8160    64.0270    -0.9240 0 CHG=0 CFG=0
M  V30 673 O      11.7330    63.3740    -1.4660 0 CHG=0 CFG=0
M  V30 674 O      10.6840    64.1340     0.3150 0 CHG=0 CFG=0
M  V30 675 H       9.0400    66.1220    -4.6230 0 CHG=0 CFG=0
M  V30 676 H       8.6020    63.5240    -4.6720 0 CHG=0 CFG=0
M  V30 677 H      10.2350    63.3140    -3.2410 0 CHG=0 CFG=0
M  V30 678 H      10.5650    64.7940    -3.7070 0 CHG=0 CFG=0
M  V30 679 H       9.9750    65.6630    -1.7870 0 CHG=0 CFG=0
M  V30 680 H       8.9230    64.5100    -1.4820 0 CHG=0 CFG=0
M  V30 681 N       7.1250    62.8720    -2.7200 0 CHG=0 CFG=0
M  V30 682 C       5.8410    62.5260    -2.1420 0 CHG=0 CFG=0
M  V30 683 C       4.8990    62.2230    -3.2920 0 CHG=0 CFG=0
M  V30 684 O       3.6760    62.1580    -3.1240 0 CHG=0 CFG=0
M  V30 685 H       7.6720    62.2110    -2.7820 0 CHG=0 CFG=0
M  V30 686 H       5.9230    61.7430    -1.5750 0 CHG=0 CFG=0
M  V30 687 H       5.4910    63.2670    -1.6230 0 CHG=0 CFG=0
M  V30 688 N       5.4890    62.0420    -4.4760 0 CHG=0 CFG=0
M  V30 689 C       4.7380    61.7490    -5.6960 0 CHG=0 CFG=2
M  V30 690 C       4.4320    60.2650    -5.7810 0 CHG=0 CFG=0
M  V30 691 O       5.2400    59.4260    -5.3700 0 CHG=0 CFG=0
M  V30 692 C       5.5320    62.1640    -6.9450 0 CHG=0 CFG=0
M  V30 693 C       5.0240    63.4180    -7.6530 0 CHG=0 CFG=0
M  V30 694 C       3.7700    63.1570    -8.4810 0 CHG=0 CFG=0
M  V30 695 C       3.3250    64.4060    -9.2570 0 CHG=0 CFG=0
M  V30 696 N       2.8530    65.5300    -8.3840 0 CHG=1 CFG=0
M  V30 697 H       6.3390    62.0850    -4.5990 0 CHG=0 CFG=0
M  V30 698 H       3.8910    62.2430    -5.6860 0 CHG=0 CFG=0
M  V30 699 H       6.4520    62.3280    -6.6840 0 CHG=0 CFG=0
M  V30 700 H       5.5020    61.4350    -7.5850 0 CHG=0 CFG=0
M  V30 701 H       4.8100    64.0920    -6.9890 0 CHG=0 CFG=0
M  V30 702 H       5.7150    63.7470    -8.2500 0 CHG=0 CFG=0
M  V30 703 H       3.9530    62.4520    -9.1220 0 CHG=0 CFG=0
M  V30 704 H       3.0470    62.8930    -7.8910 0 CHG=0 CFG=0
M  V30 705 H       4.0740    64.7320    -9.7800 0 CHG=0 CFG=0
M  V30 706 H       2.5940    64.1630    -9.8460 0 CHG=0 CFG=0
M  V30 707 H       2.6100    66.2230    -8.8860 0 CHG=0 CFG=0
M  V30 708 H       2.1560    65.2650    -7.8980 0 CHG=0 CFG=0
M  V30 709 H       3.5080    65.7850    -7.8370 0 CHG=0 CFG=0
M  V30 710 N       3.2650    59.9510    -6.3240 0 CHG=0 CFG=0
M  V30 711 C       2.9100    58.5800    -6.6200 0 CHG=0 CFG=2
M  V30 712 C       3.2920    58.2760    -8.0680 0 CHG=0 CFG=0
M  V30 713 O       2.9280    59.0190    -8.9710 0 CHG=0 CFG=0
M  V30 714 C       1.4170    58.3800    -6.4250 0 CHG=0 CFG=2
M  V30 715 O       1.0790    58.7020    -5.0730 0 CHG=0 CFG=0
M  V30 716 C       1.0170    56.9450    -6.7330 0 CHG=0 CFG=0
M  V30 717 H       2.6570    60.5220    -6.5320 0 CHG=0 CFG=0
M  V30 718 H       3.3960    57.9710    -6.0250 0 CHG=0 CFG=0
M  V30 719 H       0.9330    58.9680    -7.0250 0 CHG=0 CFG=0
M  V30 720 H       0.2740    58.5980    -4.9530 0 CHG=0 CFG=0
M  V30 721 H       0.0720    56.8340    -6.6060 0 CHG=0 CFG=0
M  V30 722 H       1.2360    56.7320    -7.6430 0 CHG=0 CFG=0
M  V30 723 H       1.4830    56.3420    -6.1500 0 CHG=0 CFG=0
M  V30 724 N       4.0340    57.1910    -8.2740 0 CHG=0 CFG=0
M  V30 725 C       4.5200    56.7850    -9.5980 0 CHG=0 CFG=2
M  V30 726 C       3.8440    55.4890   -10.0580 0 CHG=0 CFG=0
M  V30 727 O       3.4580    54.6580    -9.2250 0 CHG=0 CFG=0
M  V30 728 C       6.0260    56.5170    -9.5350 0 CHG=0 CFG=0
M  V30 729 C       6.8740    57.7560    -9.4730 0 CHG=0 CFG=0
M  V30 730 C       6.6760    58.7120    -8.4890 0 CHG=0 CFG=0
M  V30 731 C       7.8960    57.9480   -10.3950 0 CHG=0 CFG=0
M  V30 732 C       7.4710    59.8510    -8.4420 0 CHG=0 CFG=0
M  V30 733 C       8.6940    59.0770   -10.3540 0 CHG=0 CFG=0
M  V30 734 C       8.4830    60.0310    -9.3730 0 CHG=0 CFG=0
M  V30 735 H       4.2790    56.6580    -7.6450 0 CHG=0 CFG=0
M  V30 736 H       4.3450    57.4920   -10.2550 0 CHG=0 CFG=0
M  V30 737 H       6.2150    55.9910    -8.7420 0 CHG=0 CFG=0
M  V30 738 H       6.2870    56.0210   -10.3260 0 CHG=0 CFG=0
M  V30 739 H       5.9980    58.5960    -7.8640 0 CHG=0 CFG=0
M  V30 740 H       8.0410    57.3110   -11.0560 0 CHG=0 CFG=0
M  V30 741 H       7.3290    60.4900    -7.7820 0 CHG=0 CFG=0
M  V30 742 H       9.3710    59.1940   -10.9810 0 CHG=0 CFG=0
M  V30 743 H       9.0160    60.7920    -9.3410 0 CHG=0 CFG=0
M  V30 744 N       3.7160    55.2850   -11.3680 0 CHG=0 CFG=0
M  V30 745 C       3.3170    53.9630   -11.8470 0 CHG=0 CFG=2
M  V30 746 C       4.5290    53.1450   -12.2300 0 CHG=0 CFG=0
M  V30 747 O       5.5720    53.6910   -12.5630 0 CHG=0 CFG=0
M  V30 748 C       2.3100    54.0420   -12.9870 0 CHG=0 CFG=0
M  V30 749 C       0.9130    54.1250   -12.5100 0 CHG=0 CFG=0
M  V30 750 C       0.4270    55.3020   -11.9670 0 CHG=0 CFG=0
M  V30 751 C       0.1010    53.0250   -12.5440 0 CHG=0 CFG=0
M  V30 752 C      -0.8630    55.3920   -11.5130 0 CHG=0 CFG=0
M  V30 753 C      -1.1870    53.0990   -12.0680 0 CHG=0 CFG=0
M  V30 754 C      -1.6720    54.2920   -11.5500 0 CHG=0 CFG=0
M  V30 755 H       3.8480    55.8730   -11.9810 0 CHG=0 CFG=0
M  V30 756 H       2.8770    53.4930   -11.1080 0 CHG=0 CFG=0
M  V30 757 H       2.4930    54.8340   -13.5160 0 CHG=0 CFG=0
M  V30 758 H       2.3920    53.2480   -13.5380 0 CHG=0 CFG=0
M  V30 759 H       0.9740    56.0540   -11.9400 0 CHG=0 CFG=0
M  V30 760 H       0.4210    52.2230   -12.8900 0 CHG=0 CFG=0
M  V30 761 H      -1.1790    56.1910   -11.1580 0 CHG=0 CFG=0
M  V30 762 H      -1.7390    52.3520   -12.1060 0 CHG=0 CFG=0
M  V30 763 H      -2.5460    54.3440   -11.2380 0 CHG=0 CFG=0
M  V30 764 N       4.3940    51.8300   -12.1840 0 CHG=0 CFG=0
M  V30 765 C       5.5580    50.9700   -12.2360 0 CHG=0 CFG=2
M  V30 766 C       5.1230    49.6160   -12.6980 0 CHG=0 CFG=0
M  V30 767 O       3.9760    49.2340   -12.5610 0 CHG=0 CFG=0
M  V30 768 C       6.2510    50.8130   -10.8230 0 CHG=0 CFG=0
M  V30 769 C       7.6720    50.2770   -10.9590 0 CHG=0 CFG=0
M  V30 770 C       6.2880    52.1260   -10.0700 0 CHG=0 CFG=0
M  V30 771 H       3.6440    51.4140   -12.1240 0 CHG=0 CFG=0
M  V30 772 H       6.2110    51.3290   -12.8730 0 CHG=0 CFG=0
M  V30 773 H       5.7380    50.1730   -10.2870 0 CHG=0 CFG=0
M  V30 774 H       8.0600    50.1960   -10.0850 0 CHG=0 CFG=0
M  V30 775 H       7.6420    49.4180   -11.3870 0 CHG=0 CFG=0
M  V30 776 H       8.1870    50.8900   -11.4900 0 CHG=0 CFG=0
M  V30 777 H       6.7150    51.9880    -9.2220 0 CHG=0 CFG=0
M  V30 778 H       6.7830    52.7670   -10.5860 0 CHG=0 CFG=0
M  V30 779 H       5.3880    52.4350    -9.9390 0 CHG=0 CFG=0
M  V30 780 N       6.0570    48.8940   -13.2690 0 CHG=0 CFG=0
M  V30 781 C       5.7980    47.5650   -13.7580 0 CHG=0 CFG=2
M  V30 782 C       5.9850    46.6660   -12.5590 0 CHG=0 CFG=0
M  V30 783 O       6.9280    46.8290   -11.8030 0 CHG=0 CFG=0
M  V30 784 C       6.8160    47.2290   -14.8620 0 CHG=0 CFG=0
M  V30 785 C       6.8010    45.8870   -15.6070 0 CHG=0 CFG=0
M  V30 786 C       5.7460    45.8910   -16.7090 0 CHG=0 CFG=0
M  V30 787 C       8.1950    45.5920   -16.1650 0 CHG=0 CFG=0
M  V30 788 H       6.8670    49.1580   -13.3880 0 CHG=0 CFG=0
M  V30 789 H       4.8840    47.4860   -14.1020 0 CHG=0 CFG=0
M  V30 790 H       6.7300    47.9140   -15.5440 0 CHG=0 CFG=0
M  V30 791 H       7.6980    47.3040   -14.4650 0 CHG=0 CFG=0
M  V30 792 H       6.5750    45.1820   -14.9800 0 CHG=0 CFG=0
M  V30 793 H       5.7590    45.0420   -17.1570 0 CHG=0 CFG=0
M  V30 794 H       4.8830    46.0410   -16.3160 0 CHG=0 CFG=0
M  V30 795 H       5.9490    46.5930   -17.3320 0 CHG=0 CFG=0
M  V30 796 H       8.1740    44.7510   -16.6280 0 CHG=0 CFG=0
M  V30 797 H       8.4430    46.2940   -16.7700 0 CHG=0 CFG=0
M  V30 798 H       8.8190    45.5500   -15.4370 0 CHG=0 CFG=0
M  V30 799 N       5.0670    45.7350   -12.3550 0 CHG=0 CFG=0
M  V30 800 C       5.2770    44.7300   -11.3120 0 CHG=0 CFG=2
M  V30 801 C       6.6930    44.1440   -11.2830 0 CHG=0 CFG=0
M  V30 802 O       6.9190    42.9670   -11.6090 0 CHG=0 CFG=0
M  V30 803 C       4.2400    43.6790   -11.6600 0 CHG=0 CFG=0
M  V30 804 C       3.0740    44.5180   -12.1360 0 CHG=0 CFG=0
M  V30 805 C       3.6740    45.7400   -12.8340 0 CHG=0 CFG=0
M  V30 806 H       5.0680    45.1080   -10.4320 0 CHG=0 CFG=0
M  V30 807 H       4.5710    43.1040   -12.3680 0 CHG=0 CFG=0
M  V30 808 H       4.0050    43.1670   -10.8700 0 CHG=0 CFG=0
M  V30 809 H       2.5380    44.0020   -12.7580 0 CHG=0 CFG=0
M  V30 810 H       2.5410    44.7920   -11.3730 0 CHG=0 CFG=0
M  V30 811 H       3.6460    45.6290   -13.7970 0 CHG=0 CFG=0
M  V30 812 H       3.2210    46.5490   -12.5530 0 CHG=0 CFG=0
M  V30 813 N       7.6340    44.9840   -10.8570 0 CHG=0 CFG=0
M  V30 814 C       9.0270    44.6080   -10.7220 0 CHG=0 CFG=2
M  V30 815 C       9.1350    43.3520    -9.8780 0 CHG=0 CFG=0
M  V30 816 O       9.9560    42.4800   -10.1620 0 CHG=0 CFG=0
M  V30 817 C       9.7850    45.7420   -10.0470 0 CHG=0 CFG=0
M  V30 818 O       9.4480    47.0030   -10.6270 0 CHG=0 CFG=0
M  V30 819 H       7.4780    45.8000   -10.6350 0 CHG=0 CFG=0
M  V30 820 H       9.4190    44.4380   -11.6050 0 CHG=0 CFG=0
M  V30 821 H       9.5550    45.7580    -9.1050 0 CHG=0 CFG=0
M  V30 822 H      10.7370    45.5920   -10.1530 0 CHG=0 CFG=0
M  V30 823 H       9.8630    47.6030   -10.2530 0 CHG=0 CFG=0
M  V30 824 N       8.2620    43.2430    -8.8750 0 CHG=0 CFG=0
M  V30 825 C       8.4070    42.2600    -7.8050 0 CHG=0 CFG=2
M  V30 826 C       7.1020    41.5570    -7.4270 0 CHG=0 CFG=0
M  V30 827 O       6.0220    42.0530    -7.6910 0 CHG=0 CFG=0
M  V30 828 C       8.8810    43.0040    -6.5800 0 CHG=0 CFG=0
M  V30 829 C       7.9040    44.0930    -6.1680 0 CHG=0 CFG=0
M  V30 830 O       6.8440    43.7420    -5.5910 0 CHG=0 CFG=0
M  V30 831 O       8.1900    45.2860    -6.4380 0 CHG=0 CFG=0
M  V30 832 H       7.5650    43.7390    -8.7930 0 CHG=0 CFG=0
M  V30 833 H       9.0750    41.5880    -8.0520 0 CHG=0 CFG=0
M  V30 834 H       8.9680    42.3800    -5.8430 0 CHG=0 CFG=0
M  V30 835 H       9.7360    43.4200    -6.7710 0 CHG=0 CFG=0
M  V30 836 N       7.2090    40.4300    -6.7410 0 CHG=0 CFG=0
M  V30 837 C       6.0480    39.5980    -6.4000 0 CHG=0 CFG=2
M  V30 838 C       4.8050    40.3260    -5.8430 0 CHG=0 CFG=0
M  V30 839 O       3.6890    39.7920    -5.8630 0 CHG=0 CFG=0
M  V30 840 C       6.4890    38.5310    -5.3920 0 CHG=0 CFG=0
M  V30 841 C       5.3870    37.5300    -5.0730 0 CHG=0 CFG=0
M  V30 842 O       5.3940    36.4200    -5.6560 0 CHG=0 CFG=0
M  V30 843 O       4.5130    37.8590    -4.2390 0 CHG=0 CFG=0
M  V30 844 H       7.9550    40.1130    -6.4530 0 CHG=0 CFG=0
M  V30 845 H       5.7650    39.1290    -7.2120 0 CHG=0 CFG=0
M  V30 846 H       7.2410    38.0410    -5.7590 0 CHG=0 CFG=0
M  V30 847 H       6.7480    38.9650    -4.5640 0 CHG=0 CFG=0
M  V30 848 N       4.9780    41.5360    -5.3340 0 CHG=0 CFG=0
M  V30 849 C       3.8840    42.1880    -4.6110 0 CHG=0 CFG=2
M  V30 850 C       3.1320    43.1950    -5.4920 0 CHG=0 CFG=0
M  V30 851 O       1.8950    43.2440    -5.4560 0 CHG=0 CFG=0
M  V30 852 C       4.3910    42.8010    -3.2590 0 CHG=0 CFG=2
M  V30 853 O       4.4120    41.7660    -2.2670 0 CHG=0 CFG=0
M  V30 854 C       3.4960    43.9260    -2.7650 0 CHG=0 CFG=0
M  V30 855 H       5.7020    41.9970    -5.3880 0 CHG=0 CFG=0
M  V30 856 H       3.2350    41.4930    -4.3730 0 CHG=0 CFG=0
M  V30 857 H       5.2870    43.1510    -3.3790 0 CHG=0 CFG=0
M  V30 858 H       3.6580    41.4600    -2.1650 0 CHG=0 CFG=0
M  V30 859 H       3.8360    44.2760    -1.9380 0 CHG=0 CFG=0
M  V30 860 H       3.4680    44.6320    -3.4150 0 CHG=0 CFG=0
M  V30 861 H       2.6060    43.5980    -2.6220 0 CHG=0 CFG=0
M  V30 862 N       3.8620    43.9840    -6.2830 0 CHG=0 CFG=0
M  V30 863 C       3.2180    44.7850    -7.3100 0 CHG=0 CFG=2
M  V30 864 C       2.5080    43.8590    -8.3530 0 CHG=0 CFG=0
M  V30 865 O       1.3830    44.1210    -8.7730 0 CHG=0 CFG=0
M  V30 866 C       4.2430    45.6810    -7.9800 0 CHG=0 CFG=0
M  V30 867 C       4.8970    46.7270    -7.0750 0 CHG=0 CFG=0
M  V30 868 C       6.2010    47.2440    -7.6830 0 CHG=0 CFG=0
M  V30 869 C       3.9490    47.8870    -6.8310 0 CHG=0 CFG=0
M  V30 870 H       4.7170    44.0690    -6.2430 0 CHG=0 CFG=0
M  V30 871 H       2.5380    45.3550    -6.8940 0 CHG=0 CFG=0
M  V30 872 H       4.9510    45.1230    -8.3380 0 CHG=0 CFG=0
M  V30 873 H       3.8080    46.1560    -8.7050 0 CHG=0 CFG=0
M  V30 874 H       5.1030    46.3210    -6.2180 0 CHG=0 CFG=0
M  V30 875 H       6.5840    47.8960    -7.0910 0 CHG=0 CFG=0
M  V30 876 H       6.8070    46.5080    -7.7950 0 CHG=0 CFG=0
M  V30 877 H       6.0110    47.6450    -8.5340 0 CHG=0 CFG=0
M  V30 878 H       4.3810    48.5280    -6.2620 0 CHG=0 CFG=0
M  V30 879 H       3.7280    48.2920    -7.6730 0 CHG=0 CFG=0
M  V30 880 H       3.1530    47.5560    -6.4080 0 CHG=0 CFG=0
M  V30 881 N       3.1620    42.7670    -8.7310 0 CHG=0 CFG=0
M  V30 882 C       2.5580    41.7660    -9.6010 0 CHG=0 CFG=2
M  V30 883 C       1.2510    41.3080    -9.0090 0 CHG=0 CFG=0
M  V30 884 O       0.2200    41.2950    -9.6610 0 CHG=0 CFG=0
M  V30 885 C       3.5070    40.5640    -9.8300 0 CHG=0 CFG=0
M  V30 886 C       4.6880    40.8870   -10.7900 0 CHG=0 CFG=0
M  V30 887 C       5.5680    39.6850   -11.1210 0 CHG=0 CFG=0
M  V30 888 N       6.5140    39.9790   -12.2060 0 CHG=0 CFG=0
M  V30 889 C       7.3640    39.0920   -12.7280 0 CHG=0 CFG=0
M  V30 890 N       7.3950    37.8450   -12.2720 0 CHG=0 CFG=0
M  V30 891 N       8.1850    39.4480   -13.7090 0 CHG=0 CFG=0
M  V30 892 H       3.9670    42.5800    -8.4930 0 CHG=0 CFG=0
M  V30 893 H       2.3700    42.1730   -10.4730 0 CHG=0 CFG=0
M  V30 894 H       3.8810    40.2920    -8.9770 0 CHG=0 CFG=0
M  V30 895 H       3.0000    39.8330   -10.2160 0 CHG=0 CFG=0
M  V30 896 H       4.3280    41.2280   -11.6240 0 CHG=0 CFG=0
M  V30 897 H       5.2510    41.5600   -10.3760 0 CHG=0 CFG=0
M  V30 898 H       6.0770    39.4370   -10.3340 0 CHG=0 CFG=0
M  V30 899 H       5.0050    38.9460   -11.4020 0 CHG=0 CFG=0
M  V30 900 H       6.5210    40.7770   -12.5260 0 CHG=0 CFG=0
M  V30 901 H       6.8670    37.6060   -11.6370 0 CHG=0 CFG=0
M  V30 902 H       7.9440    37.2770   -12.6120 0 CHG=0 CFG=0
M  V30 903 H       8.1720    40.2530   -14.0100 0 CHG=0 CFG=0
M  V30 904 H       8.7310    38.8730   -14.0430 0 CHG=0 CFG=0
M  V30 905 N       1.2640    40.9470    -7.7530 0 CHG=0 CFG=0
M  V30 906 C       0.0360    40.4590    -7.1780 0 CHG=0 CFG=2
M  V30 907 C      -1.0870    41.5260    -7.1620 0 CHG=0 CFG=0
M  V30 908 O      -2.2610    41.2180    -7.3620 0 CHG=0 CFG=0
M  V30 909 C       0.3230    39.9520    -5.7780 0 CHG=0 CFG=0
M  V30 910 O      -0.7950    39.2250    -5.3240 0 CHG=0 CFG=0
M  V30 911 H       1.9430    40.9720    -7.2250 0 CHG=0 CFG=0
M  V30 912 H      -0.2810    39.7010    -7.7120 0 CHG=0 CFG=0
M  V30 913 H       1.0990    39.3710    -5.7980 0 CHG=0 CFG=0
M  V30 914 H       0.4790    40.7060    -5.1880 0 CHG=0 CFG=0
M  V30 915 H      -0.6560    38.9430    -4.5660 0 CHG=0 CFG=0
M  V30 916 N      -0.7300    42.7760    -6.8990 0 CHG=0 CFG=0
M  V30 917 C      -1.7250    43.8500    -6.8720 0 CHG=0 CFG=2
M  V30 918 C      -2.2210    44.2110    -8.2450 0 CHG=0 CFG=0
M  V30 919 O      -3.3740    44.5880    -8.3850 0 CHG=0 CFG=0
M  V30 920 C      -1.1880    45.1050    -6.2070 0 CHG=0 CFG=0
M  V30 921 C      -1.1350    44.9810    -4.6990 0 CHG=0 CFG=0
M  V30 922 C      -0.1280    45.9070    -4.0730 0 CHG=0 CFG=0
M  V30 923 O       0.5930    46.6210    -4.7890 0 CHG=0 CFG=0
M  V30 924 O      -0.0540    45.9260    -2.8540 0 CHG=0 CFG=0
M  V30 925 H       0.0740    43.0320    -6.7340 0 CHG=0 CFG=0
M  V30 926 H      -2.4970    43.5460    -6.3500 0 CHG=0 CFG=0
M  V30 927 H      -0.2870    45.2720    -6.5270 0 CHG=0 CFG=0
M  V30 928 H      -1.7640    45.8530    -6.4280 0 CHG=0 CFG=0
M  V30 929 H      -2.0070    45.1960    -4.3330 0 CHG=0 CFG=0
M  V30 930 H      -0.8920    44.0720    -4.4640 0 CHG=0 CFG=0
M  V30 931 N      -1.3600    44.0930    -9.2500 0 CHG=0 CFG=0
M  V30 932 C      -1.7590    44.3700   -10.6320 0 CHG=0 CFG=2
M  V30 933 C      -2.7820    43.3400   -11.0670 0 CHG=0 CFG=0
M  V30 934 O      -3.8370    43.7100   -11.5930 0 CHG=0 CFG=0
M  V30 935 C      -0.5700    44.3390   -11.5430 0 CHG=0 CFG=0
M  V30 936 H      -0.5390    43.8530    -9.1610 0 CHG=0 CFG=0
M  V30 937 H      -2.1690    45.2590   -10.6840 0 CHG=0 CFG=0
M  V30 938 H      -0.8580    44.5240   -12.4390 0 CHG=0 CFG=0
M  V30 939 H       0.0590    45.0060   -11.2570 0 CHG=0 CFG=0
M  V30 940 H      -0.1670    43.4690   -11.5000 0 CHG=0 CFG=0
M  V30 941 N      -2.5050    42.0590   -10.7910 0 CHG=0 CFG=0
M  V30 942 C      -3.4550    41.0090   -11.1140 0 CHG=0 CFG=2
M  V30 943 C      -4.8330    41.1130   -10.4510 0 CHG=0 CFG=0
M  V30 944 O      -5.8390    40.9060   -11.1190 0 CHG=0 CFG=0
M  V30 945 C      -2.9170    39.6280   -10.8230 0 CHG=0 CFG=0
M  V30 946 C      -3.9050    38.5510   -11.1520 0 CHG=0 CFG=0
M  V30 947 C      -4.1790    38.2300   -12.4830 0 CHG=0 CFG=0
M  V30 948 C      -4.6210    37.9210   -10.1620 0 CHG=0 CFG=0
M  V30 949 C      -5.1110    37.2590   -12.7960 0 CHG=0 CFG=0
M  V30 950 C      -5.5760    36.9420   -10.4750 0 CHG=0 CFG=0
M  V30 951 C      -5.8170    36.6070   -11.7740 0 CHG=0 CFG=0
M  V30 952 H      -1.7790    41.7820   -10.4210 0 CHG=0 CFG=0
M  V30 953 H      -3.6120    41.0480   -12.0810 0 CHG=0 CFG=0
M  V30 954 H      -2.1200    39.4780   -11.3560 0 CHG=0 CFG=0
M  V30 955 H      -2.7030    39.5620    -9.8790 0 CHG=0 CFG=0
M  V30 956 H      -3.7100    38.6550   -13.1650 0 CHG=0 CFG=0
M  V30 957 H      -4.4610    38.1380    -9.2720 0 CHG=0 CFG=0
M  V30 958 H      -5.2730    37.0410   -13.6850 0 CHG=0 CFG=0
M  V30 959 H      -6.0380    36.5110    -9.7930 0 CHG=0 CFG=0
M  V30 960 H      -6.4470    35.9550   -11.9810 0 CHG=0 CFG=0
M  V30 961 N      -4.8920    41.3990    -9.1500 0 CHG=0 CFG=0
M  V30 962 C      -6.1750    41.4270    -8.4160 0 CHG=0 CFG=2
M  V30 963 C      -7.0570    42.5770    -8.8820 0 CHG=0 CFG=0
M  V30 964 O      -8.3020    42.4900    -8.8530 0 CHG=0 CFG=0
M  V30 965 C      -5.9330    41.5960    -6.9100 0 CHG=0 CFG=0
M  V30 966 C      -4.9360    40.6020    -6.3490 0 CHG=0 CFG=0
M  V30 967 C      -5.5520    39.2420    -6.1100 0 CHG=0 CFG=0
M  V30 968 O      -6.8030    39.1450    -6.1050 0 CHG=0 CFG=0
M  V30 969 O      -4.7790    38.2690    -5.9410 0 CHG=0 CFG=0
M  V30 970 H      -4.2070    41.5810    -8.6630 0 CHG=0 CFG=0
M  V30 971 H      -6.6560    40.5850    -8.5620 0 CHG=0 CFG=0
M  V30 972 H      -5.5900    42.4880    -6.7450 0 CHG=0 CFG=0
M  V30 973 H      -6.7740    41.4730    -6.4410 0 CHG=0 CFG=0
M  V30 974 H      -4.2060    40.4950    -6.9780 0 CHG=0 CFG=0
M  V30 975 H      -4.6000    40.9330    -5.5010 0 CHG=0 CFG=0
M  V30 976 N      -6.3960    43.6550    -9.2920 0 CHG=0 CFG=0
M  V30 977 C      -7.0740    44.8390    -9.7750 0 CHG=0 CFG=2
M  V30 978 C      -7.5480    44.7510   -11.2530 0 CHG=0 CFG=0
M  V30 979 O      -8.7200    45.0830   -11.5700 0 CHG=0 CFG=0
M  V30 980 C      -6.1480    46.0290    -9.6410 0 CHG=0 CFG=0
M  V30 981 C      -6.9000    47.3180    -9.7710 0 CHG=0 CFG=0
M  V30 982 C      -8.0130    47.5650    -8.9720 0 CHG=0 CFG=0
M  V30 983 C      -6.5120    48.2860   -10.6970 0 CHG=0 CFG=0
M  V30 984 C      -8.6950    48.7400    -9.0750 0 CHG=0 CFG=0
M  V30 985 C      -7.1790    49.4630   -10.7980 0 CHG=0 CFG=0
M  V30 986 C      -8.2830    49.6900    -9.9990 0 CHG=0 CFG=0
M  V30 987 O      -8.9830    50.8810   -10.1120 0 CHG=0 CFG=0
M  V30 988 H      -5.5390    43.7200    -9.2970 0 CHG=0 CFG=0
M  V30 989 H      -7.8610    45.0050    -9.2150 0 CHG=0 CFG=0
M  V30 990 H      -5.7240    46.0090    -8.7690 0 CHG=0 CFG=0
M  V30 991 H      -5.4780    45.9940   -10.3420 0 CHG=0 CFG=0
M  V30 992 H      -8.2850    46.9280    -8.3510 0 CHG=0 CFG=0
M  V30 993 H      -5.7660    48.1350   -11.2320 0 CHG=0 CFG=0
M  V30 994 H      -9.4370    48.8990    -8.5380 0 CHG=0 CFG=0
M  V30 995 H      -6.9120    50.1010   -11.4210 0 CHG=0 CFG=0
M  V30 996 H      -8.9700    51.2820    -9.3970 0 CHG=0 CFG=0
M  V30 997 N      -6.6310    44.3110   -12.1240 0 CHG=0 CFG=0
M  V30 998 C      -6.8600    44.2470   -13.5620 0 CHG=0 CFG=2
M  V30 999 C      -7.2040    42.8560   -14.0920 0 CHG=0 CFG=0
M  V30 1000 O      -7.5990    42.7270   -15.2560 0 CHG=0 CFG=0
M  V30 1001 C      -5.6240    44.7000   -14.3150 0 CHG=0 CFG=0
M  V30 1002 C      -5.1730    46.0840   -13.9820 0 CHG=0 CFG=0
M  V30 1003 C      -5.8630    47.1900   -14.4500 0 CHG=0 CFG=0
M  V30 1004 C      -4.0320    46.3000   -13.2310 0 CHG=0 CFG=0
M  V30 1005 C      -5.4310    48.4800   -14.1570 0 CHG=0 CFG=0
M  V30 1006 C      -3.6010    47.5910   -12.9400 0 CHG=0 CFG=0
M  V30 1007 C      -4.3140    48.6680   -13.4220 0 CHG=0 CFG=0
M  V30 1008 O      -3.9270    49.9500   -13.1560 0 CHG=0 CFG=0
M  V30 1009 H      -5.8500    44.0370   -11.8920 0 CHG=0 CFG=0
M  V30 1010 H      -7.5960    44.8510   -13.7950 0 CHG=0 CFG=0
M  V30 1011 H      -4.8950    44.0950   -14.1090 0 CHG=0 CFG=0
M  V30 1012 H      -5.8130    44.6730   -15.2660 0 CHG=0 CFG=0
M  V30 1013 H      -6.6290    47.0690   -14.9630 0 CHG=0 CFG=0
M  V30 1014 H      -3.5490    45.5720   -12.9130 0 CHG=0 CFG=0
M  V30 1015 H      -5.9070    49.2130   -14.4760 0 CHG=0 CFG=0
M  V30 1016 H      -2.8340    47.7250   -12.4310 0 CHG=0 CFG=0
M  V30 1017 H      -3.1790    50.0870   -13.4620 0 CHG=0 CFG=0
M  V30 1018 N      -7.0560    41.8240   -13.2670 0 CHG=0 CFG=0
M  V30 1019 C      -7.3240    40.4500   -13.7100 0 CHG=0 CFG=2
M  V30 1020 C      -6.6060    40.1080   -14.9720 0 CHG=0 CFG=0
M  V30 1021 O      -7.1430    39.3320   -15.7840 0 CHG=0 CFG=0
M  V30 1022 C      -8.8070    40.2000   -13.9640 0 CHG=0 CFG=0
M  V30 1023 C      -9.5940    40.0150   -12.7210 0 CHG=0 CFG=0
M  V30 1024 N     -10.9230    39.6610   -12.7260 0 CHG=0 CFG=0
M  V30 1025 C      -9.2460    40.1550   -11.4220 0 CHG=0 CFG=0
M  V30 1026 C     -11.3660    39.5970   -11.4840 0 CHG=0 CFG=0
M  V30 1027 N     -10.3650    39.8810   -10.6740 0 CHG=1 CFG=0
M  V30 1028 H      -6.8020    41.8880   -12.4480 0 CHG=0 CFG=0
M  V30 1029 H      -7.0270    39.8280   -13.0140 0 CHG=0 CFG=0
M  V30 1030 H      -9.1770    40.9600   -14.4400 0 CHG=0 CFG=0
M  V30 1031 H      -8.9030    39.3960   -14.4990 0 CHG=0 CFG=0
M  V30 1032 H     -11.3960    39.5180   -13.4300 0 CHG=0 CFG=0
M  V30 1033 H      -8.4070    40.3910   -11.0970 0 CHG=0 CFG=0
M  V30 1034 H     -12.2290    39.3680   -11.2250 0 CHG=0 CFG=0
M  V30 1035 H     -10.4070    39.8980    -9.8160 0 CHG=0 CFG=0
M  V30 1036 N      -5.4180    40.6720   -15.1600 0 CHG=0 CFG=0
M  V30 1037 C      -4.5600    40.2130   -16.2390 0 CHG=0 CFG=2
M  V30 1038 C      -3.1030    39.9460   -15.8440 0 CHG=0 CFG=0
M  V30 1039 O      -2.5320    40.5970   -15.0040 0 CHG=0 CFG=0
M  V30 1040 C      -4.5580    41.1760   -17.4250 0 CHG=0 CFG=2
M  V30 1041 O      -3.6650    40.6720   -18.4210 0 CHG=0 CFG=0
M  V30 1042 C      -4.0920    42.5290   -17.0380 0 CHG=0 CFG=0
M  V30 1043 H      -5.0920    41.3110   -14.6850 0 CHG=0 CFG=0
M  V30 1044 H      -4.9240    39.3640   -16.5650 0 CHG=0 CFG=0
M  V30 1045 H      -5.4530    41.2470   -17.7930 0 CHG=0 CFG=0
M  V30 1046 H      -3.6510    41.1770   -19.0670 0 CHG=0 CFG=0
M  V30 1047 H      -4.1010    43.1110   -17.8010 0 CHG=0 CFG=0
M  V30 1048 H      -4.6670    42.8930   -16.3610 0 CHG=0 CFG=0
M  V30 1049 H      -3.1970    42.4810   -16.6930 0 CHG=0 CFG=0
M  V30 1050 N      -2.4960    38.9730   -16.4960 0 CHG=0 CFG=0
M  V30 1051 C      -1.0900    38.7240   -16.2870 0 CHG=0 CFG=2
M  V30 1052 C      -0.2470    39.3420   -17.3990 0 CHG=0 CFG=0
M  V30 1053 O       0.9550    39.1440   -17.4260 0 CHG=0 CFG=0
M  V30 1054 C      -0.8300    37.2170   -16.2240 0 CHG=0 CFG=0
M  V30 1055 C      -1.6010    36.4640   -15.1420 0 CHG=0 CFG=0
M  V30 1056 C      -1.3330    34.9840   -15.2180 0 CHG=0 CFG=0
M  V30 1057 C      -1.2150    37.0140   -13.7890 0 CHG=0 CFG=0
M  V30 1058 H      -2.8750    38.4460   -17.0620 0 CHG=0 CFG=0
M  V30 1059 H      -0.8140    39.1200   -15.4340 0 CHG=0 CFG=0
M  V30 1060 H      -1.0740    36.8270   -17.0790 0 CHG=0 CFG=0
M  V30 1061 H       0.1150    37.0740   -16.0610 0 CHG=0 CFG=0
M  V30 1062 H      -2.5520    36.6080   -15.2680 0 CHG=0 CFG=0
M  V30 1063 H      -1.8300    34.5410   -14.5260 0 CHG=0 CFG=0
M  V30 1064 H      -1.6090    34.6600   -16.0790 0 CHG=0 CFG=0
M  V30 1065 H      -0.3930    34.8300   -15.0950 0 CHG=0 CFG=0
M  V30 1066 H      -1.7000    36.5410   -13.1090 0 CHG=0 CFG=0
M  V30 1067 H      -0.2710    36.8950   -13.6610 0 CHG=0 CFG=0
M  V30 1068 H      -1.4350    37.9480   -13.7580 0 CHG=0 CFG=0
M  V30 1069 N      -0.8570    40.0840   -18.3190 0 CHG=0 CFG=0
M  V30 1070 C      -0.1070    40.5820   -19.4730 0 CHG=0 CFG=2
M  V30 1071 C       0.8550    41.6900   -19.0630 0 CHG=0 CFG=0
M  V30 1072 O       0.4550    42.7930   -18.7280 0 CHG=0 CFG=0
M  V30 1073 C      -1.0840    41.0440   -20.5540 0 CHG=0 CFG=0
M  V30 1074 C      -0.4160    41.7370   -21.7380 0 CHG=0 CFG=0
M  V30 1075 O       0.8370    41.8480   -21.8780 0 CHG=0 CFG=0
M  V30 1076 O      -1.2190    42.1830   -22.5640 0 CHG=0 CFG=0
M  V30 1077 H      -1.6870    40.3100   -18.3030 0 CHG=0 CFG=0
M  V30 1078 H       0.4240    39.8470   -19.8450 0 CHG=0 CFG=0
M  V30 1079 H      -1.5610    40.2710   -20.8940 0 CHG=0 CFG=0
M  V30 1080 H      -1.7110    41.6700   -20.1600 0 CHG=0 CFG=0
M  V30 1081 N       2.1380    41.3640   -19.1170 0 CHG=0 CFG=0
M  V30 1082 C       3.2150    42.2720   -18.7360 0 CHG=0 CFG=2
M  V30 1083 C       3.2220    43.6130   -19.4820 0 CHG=0 CFG=0
M  V30 1084 O       3.7740    44.5720   -18.9790 0 CHG=0 CFG=0
M  V30 1085 C       4.5840    41.5540   -18.8910 0 CHG=0 CFG=0
M  V30 1086 C       4.8470    40.7960   -20.2520 0 CHG=0 CFG=0
M  V30 1087 C       4.0750    39.4440   -20.4490 0 CHG=0 CFG=0
M  V30 1088 O       4.1660    38.8260   -21.5600 0 CHG=0 CFG=0
M  V30 1089 O       3.3690    39.0060   -19.5100 0 CHG=0 CFG=0
M  V30 1090 H       2.4210    40.5950   -19.3790 0 CHG=0 CFG=0
M  V30 1091 H       3.1090    42.4790   -17.7840 0 CHG=0 CFG=0
M  V30 1092 H       5.2850    42.2170   -18.7940 0 CHG=0 CFG=0
M  V30 1093 H       4.6630    40.8990   -18.1800 0 CHG=0 CFG=0
M  V30 1094 H       4.5930    41.3830   -20.9810 0 CHG=0 CFG=0
M  V30 1095 H       5.7950    40.5990   -20.3120 0 CHG=0 CFG=0
M  V30 1096 N       2.6360    43.6620   -20.6860 0 CHG=0 CFG=0
M  V30 1097 C       2.5830    44.8700   -21.5230 0 CHG=0 CFG=2
M  V30 1098 C       1.3490    45.7400   -21.1890 0 CHG=0 CFG=0
M  V30 1099 O       1.2320    46.9160   -21.6150 0 CHG=0 CFG=0
M  V30 1100 C       2.5260    44.4890   -23.0140 0 CHG=0 CFG=0
M  V30 1101 O       1.2660    43.8910   -23.3700 0 CHG=0 CFG=0
M  V30 1102 H       2.2510    42.9840   -21.0500 0 CHG=0 CFG=0
M  V30 1103 H       3.3900    45.4060   -21.3710 0 CHG=0 CFG=0
M  V30 1104 H       2.6530    45.2910   -23.5460 0 CHG=0 CFG=0
M  V30 1105 H       3.2360    43.8560   -23.2020 0 CHG=0 CFG=0
M  V30 1106 H       0.7790    43.8510   -22.7110 0 CHG=0 CFG=0
M  V30 1107 N       0.4130    45.1560   -20.4510 0 CHG=0 CFG=0
M  V30 1108 C      -0.8510    45.8330   -20.2370 0 CHG=0 CFG=2
M  V30 1109 C      -0.7540    47.2840   -19.6470 0 CHG=0 CFG=0
M  V30 1110 O      -1.2750    48.2350   -20.2410 0 CHG=0 CFG=0
M  V30 1111 C      -1.7680    44.9420   -19.4300 0 CHG=0 CFG=0
M  V30 1112 C      -3.1030    45.5380   -19.1830 0 CHG=0 CFG=0
M  V30 1113 C      -3.2510    46.5730   -18.2760 0 CHG=0 CFG=0
M  V30 1114 C      -4.2240    45.0750   -19.8650 0 CHG=0 CFG=0
M  V30 1115 C      -4.4970    47.1210   -18.0250 0 CHG=0 CFG=0
M  V30 1116 C      -5.5020    45.6240   -19.6220 0 CHG=0 CFG=0
M  V30 1117 C      -5.6320    46.6450   -18.7130 0 CHG=0 CFG=0
M  V30 1118 H       0.4840    44.3870   -20.0730 0 CHG=0 CFG=0
M  V30 1119 H      -1.2740    45.9300   -21.1160 0 CHG=0 CFG=0
M  V30 1120 H      -1.8980    44.1090   -19.9100 0 CHG=0 CFG=0
M  V30 1121 H      -1.3560    44.7660   -18.5690 0 CHG=0 CFG=0
M  V30 1122 H      -2.5080    46.8870   -17.8120 0 CHG=0 CFG=0
M  V30 1123 H      -4.1330    44.3790   -20.4740 0 CHG=0 CFG=0
M  V30 1124 H      -4.5840    47.8140   -17.4120 0 CHG=0 CFG=0
M  V30 1125 H      -6.2450    45.3060   -20.0820 0 CHG=0 CFG=0
M  V30 1126 H      -6.4670    47.0200   -18.5510 0 CHG=0 CFG=0
M  V30 1127 N      -0.0870    47.4650   -18.5040 0 CHG=0 CFG=0
M  V30 1128 C      -0.0500    48.7880   -17.8590 0 CHG=0 CFG=2
M  V30 1129 C       0.5740    49.8560   -18.7500 0 CHG=0 CFG=0
M  V30 1130 O       0.0590    50.9720   -18.8340 0 CHG=0 CFG=0
M  V30 1131 C       0.6380    48.7340   -16.4880 0 CHG=0 CFG=0
M  V30 1132 C      -0.2580    48.2020   -15.3570 0 CHG=0 CFG=0
M  V30 1133 C       0.5270    47.9630   -14.0960 0 CHG=0 CFG=0
M  V30 1134 C      -1.3980    49.1470   -15.0720 0 CHG=0 CFG=0
M  V30 1135 H       0.3470    46.8510   -18.0850 0 CHG=0 CFG=0
M  V30 1136 H      -0.9770    49.0640   -17.6970 0 CHG=0 CFG=0
M  V30 1137 H       1.4120    48.1530   -16.5500 0 CHG=0 CFG=0
M  V30 1138 H       0.9190    49.6300   -16.2450 0 CHG=0 CFG=0
M  V30 1139 H      -0.6390    47.3540   -15.6340 0 CHG=0 CFG=0
M  V30 1140 H      -0.0670    47.6320   -13.4170 0 CHG=0 CFG=0
M  V30 1141 H       1.2140    47.3170   -14.2730 0 CHG=0 CFG=0
M  V30 1142 H       0.9210    48.7910   -13.8110 0 CHG=0 CFG=0
M  V30 1143 H      -1.9350    48.7840   -14.3630 0 CHG=0 CFG=0
M  V30 1144 H      -1.0400    49.9980   -14.8080 0 CHG=0 CFG=0
M  V30 1145 H      -1.9280    49.2460   -15.8660 0 CHG=0 CFG=0
M  V30 1146 N       1.6660    49.5210   -19.4300 0 CHG=0 CFG=0
M  V30 1147 C       2.2320    50.4200   -20.4410 0 CHG=0 CFG=0
M  V30 1148 C       1.2430    50.8310   -21.5470 0 CHG=0 CFG=0
M  V30 1149 O       1.1170    52.0090   -21.8800 0 CHG=0 CFG=0
M  V30 1150 H       2.0990    48.7850   -19.3280 0 CHG=0 CFG=0
M  V30 1151 H       2.5490    51.2270   -20.0050 0 CHG=0 CFG=0
M  V30 1152 H       2.9910    49.9860   -20.8610 0 CHG=0 CFG=0
M  V30 1153 N       0.5120    49.8740   -22.1090 0 CHG=0 CFG=0
M  V30 1154 C      -0.4250    50.1970   -23.1910 0 CHG=0 CFG=2
M  V30 1155 C      -1.5700    51.0420   -22.6040 0 CHG=0 CFG=0
M  V30 1156 O      -2.0720    52.0060   -23.2200 0 CHG=0 CFG=0
M  V30 1157 C      -0.9440    48.9060   -23.8600 0 CHG=0 CFG=0
M  V30 1158 C       0.1740    48.1410   -24.6120 0 CHG=0 CFG=0
M  V30 1159 C      -0.2800    46.8640   -25.3120 0 CHG=0 CFG=0
M  V30 1160 N      -0.7110    45.8070   -24.4060 0 CHG=0 CFG=0
M  V30 1161 C      -1.9740    45.5140   -24.1430 0 CHG=0 CFG=0
M  V30 1162 N      -2.9690    46.2310   -24.6770 0 CHG=0 CFG=0
M  V30 1163 N      -2.2530    44.5210   -23.3110 0 CHG=0 CFG=0
M  V30 1164 H       0.5360    49.0430   -21.8910 0 CHG=0 CFG=0
M  V30 1165 H       0.0350    50.7320   -23.8710 0 CHG=0 CFG=0
M  V30 1166 H      -1.3040    48.3180   -23.1770 0 CHG=0 CFG=0
M  V30 1167 H      -1.6350    49.1360   -24.5000 0 CHG=0 CFG=0
M  V30 1168 H       0.5480    48.7280   -25.2880 0 CHG=0 CFG=0
M  V30 1169 H       0.8640    47.8970   -23.9760 0 CHG=0 CFG=0
M  V30 1170 H      -1.0270    47.0760   -25.8940 0 CHG=0 CFG=0
M  V30 1171 H       0.4580    46.5180   -25.8390 0 CHG=0 CFG=0
M  V30 1172 H      -0.1020    45.3420   -24.0150 0 CHG=0 CFG=0
M  V30 1173 H      -2.7910    46.8750   -25.2180 0 CHG=0 CFG=0
M  V30 1174 H      -3.7860    46.0360   -24.4920 0 CHG=0 CFG=0
M  V30 1175 H      -1.6150    44.0640   -22.9580 0 CHG=0 CFG=0
M  V30 1176 H      -3.0710    44.3340   -23.1240 0 CHG=0 CFG=0
M  V30 1177 N      -1.9520    50.6900   -21.3890 0 CHG=0 CFG=0
M  V30 1178 C      -2.9740    51.4190   -20.6880 0 CHG=0 CFG=2
M  V30 1179 C      -2.5570    52.8700   -20.4630 0 CHG=0 CFG=0
M  V30 1180 O      -3.3270    53.7930   -20.7430 0 CHG=0 CFG=0
M  V30 1181 C      -3.2330    50.7400   -19.3770 0 CHG=0 CFG=0
M  V30 1182 C      -4.1920    51.4570   -18.5150 0 CHG=0 CFG=0
M  V30 1183 C      -5.3710    51.9390   -19.0330 0 CHG=0 CFG=0
M  V30 1184 C      -3.9320    51.6290   -17.1520 0 CHG=0 CFG=0
M  V30 1185 C      -6.2830    52.5790   -18.2300 0 CHG=0 CFG=0
M  V30 1186 C      -4.8290    52.2710   -16.3300 0 CHG=0 CFG=0
M  V30 1187 C      -6.0050    52.7520   -16.8750 0 CHG=0 CFG=0
M  V30 1188 O      -6.8980    53.4090   -16.0710 0 CHG=0 CFG=0
M  V30 1189 H      -1.6280    50.0260   -20.9500 0 CHG=0 CFG=0
M  V30 1190 H      -3.8010    51.4100   -21.2130 0 CHG=0 CFG=0
M  V30 1191 H      -3.5920    49.8560   -19.5480 0 CHG=0 CFG=0
M  V30 1192 H      -2.3960    50.6670   -18.8920 0 CHG=0 CFG=0
M  V30 1193 H      -5.5580    51.8210   -19.9360 0 CHG=0 CFG=0
M  V30 1194 H      -3.1390    51.2990   -16.7940 0 CHG=0 CFG=0
M  V30 1195 H      -7.0730    52.9100   -18.5920 0 CHG=0 CFG=0
M  V30 1196 H      -4.6430    52.3880   -15.4270 0 CHG=0 CFG=0
M  V30 1197 H      -6.5440    54.0710   -15.7410 0 CHG=0 CFG=0
M  V30 1198 N      -1.3350    53.0820   -19.9890 0 CHG=0 CFG=0
M  V30 1199 C      -0.8420    54.4430   -19.8080 0 CHG=0 CFG=2
M  V30 1200 C      -0.8960    55.2260   -21.1320 0 CHG=0 CFG=0
M  V30 1201 O      -1.3800    56.3560   -21.1790 0 CHG=0 CFG=0
M  V30 1202 C       0.6030    54.4390   -19.3040 0 CHG=0 CFG=0
M  V30 1203 C       0.8030    53.9610   -17.8740 0 CHG=0 CFG=0
M  V30 1204 S       0.0150    55.0230   -16.6540 0 CHG=0 CFG=0
M  V30 1205 C      -1.4060    54.0480   -16.1740 0 CHG=0 CFG=0
M  V30 1206 H      -0.7780    52.4660   -19.7670 0 CHG=0 CFG=0
M  V30 1207 H      -1.3960    54.9000   -19.1420 0 CHG=0 CFG=0
M  V30 1208 H       1.1270    53.8600   -19.8800 0 CHG=0 CFG=0
M  V30 1209 H       0.9490    55.3440   -19.3580 0 CHG=0 CFG=0
M  V30 1210 H       0.4260    53.0720   -17.7840 0 CHG=0 CFG=0
M  V30 1211 H       1.7530    53.9380   -17.6800 0 CHG=0 CFG=0
M  V30 1212 H      -1.9080    54.5310   -15.5130 0 CHG=0 CFG=0
M  V30 1213 H      -1.9520    53.8890   -16.9480 0 CHG=0 CFG=0
M  V30 1214 H      -1.1030    53.2130   -15.8100 0 CHG=0 CFG=0
M  V30 1215 N      -0.3580    54.6470   -22.1970 0 CHG=0 CFG=0
M  V30 1216 C      -0.2810    55.3520   -23.4680 0 CHG=0 CFG=2
M  V30 1217 C      -1.6690    55.8080   -23.9670 0 CHG=0 CFG=0
M  V30 1218 O      -1.8540    56.9160   -24.4650 0 CHG=0 CFG=0
M  V30 1219 C       0.3700    54.4670   -24.5090 0 CHG=0 CFG=0
M  V30 1220 O       0.9450    55.3090   -25.4710 0 CHG=0 CFG=0
M  V30 1221 H      -0.0330    53.8510   -22.2110 0 CHG=0 CFG=0
M  V30 1222 H       0.2780    56.1490   -23.3560 0 CHG=0 CFG=0
M  V30 1223 H       1.0600    53.9260   -24.0930 0 CHG=0 CFG=0
M  V30 1224 H      -0.3020    53.9050   -24.9260 0 CHG=0 CFG=0
M  V30 1225 H       1.3090    54.8610   -26.0540 0 CHG=0 CFG=0
M  V30 1226 N      -2.6480    54.9440   -23.8060 0 CHG=0 CFG=0
M  V30 1227 C      -3.9750    55.2750   -24.2120 0 CHG=0 CFG=2
M  V30 1228 C      -4.4930    56.4030   -23.3360 0 CHG=0 CFG=0
M  V30 1229 O      -5.0840    57.3690   -23.8420 0 CHG=0 CFG=0
M  V30 1230 C      -4.8800    54.0340   -24.1150 0 CHG=0 CFG=0
M  V30 1231 H      -2.5630    54.1600   -23.4630 0 CHG=0 CFG=0
M  V30 1232 H      -3.9660    55.5820   -25.1420 0 CHG=0 CFG=0
M  V30 1233 H      -5.7680    54.2730   -24.3910 0 CHG=0 CFG=0
M  V30 1234 H      -4.5310    53.3480   -24.6900 0 CHG=0 CFG=0
M  V30 1235 H      -4.8910    53.7260   -23.2060 0 CHG=0 CFG=0
M  V30 1236 N      -4.2990    56.2810   -22.0230 0 CHG=0 CFG=0
M  V30 1237 C      -4.7860    57.3050   -21.0840 0 CHG=0 CFG=2
M  V30 1238 C      -4.2480    58.6870   -21.4830 0 CHG=0 CFG=0
M  V30 1239 O      -4.9420    59.6830   -21.3400 0 CHG=0 CFG=0
M  V30 1240 C      -4.4350    56.9460   -19.6220 0 CHG=0 CFG=0
M  V30 1241 C      -5.2630    57.5220   -18.4560 0 CHG=0 CFG=0
M  V30 1242 C      -6.7430    57.2140   -18.5990 0 CHG=0 CFG=0
M  V30 1243 C      -4.7860    56.9930   -17.1190 0 CHG=0 CFG=0
M  V30 1244 H      -3.8920    55.6220   -21.6480 0 CHG=0 CFG=0
M  V30 1245 H      -5.7630    57.3430   -21.1490 0 CHG=0 CFG=0
M  V30 1246 H      -4.4850    55.9800   -19.5420 0 CHG=0 CFG=0
M  V30 1247 H      -3.5180    57.2220   -19.4680 0 CHG=0 CFG=0
M  V30 1248 H      -5.1610    58.4860   -18.4470 0 CHG=0 CFG=0
M  V30 1249 H      -7.2140    57.5920   -17.8520 0 CHG=0 CFG=0
M  V30 1250 H      -7.0650    57.5990   -19.4180 0 CHG=0 CFG=0
M  V30 1251 H      -6.8640    56.2620   -18.6150 0 CHG=0 CFG=0
M  V30 1252 H      -5.3250    57.3740   -16.4220 0 CHG=0 CFG=0
M  V30 1253 H      -4.8700    56.0370   -17.1130 0 CHG=0 CFG=0
M  V30 1254 H      -3.8670    57.2420   -16.9960 0 CHG=0 CFG=0
M  V30 1255 N      -3.0470    58.7400   -22.0550 0 CHG=0 CFG=0
M  V30 1256 C      -2.4800    60.0200   -22.4300 0 CHG=0 CFG=2
M  V30 1257 C      -3.3690    60.7110   -23.4540 0 CHG=0 CFG=0
M  V30 1258 O      -3.4550    61.9420   -23.4490 0 CHG=0 CFG=0
M  V30 1259 C      -1.0230    59.8900   -22.9440 0 CHG=0 CFG=0
M  V30 1260 C       0.0190    59.9890   -21.8250 0 CHG=0 CFG=0
M  V30 1261 O       0.5220    61.0680   -21.5210 0 CHG=0 CFG=0
M  V30 1262 N       0.3360    58.8570   -21.2010 0 CHG=0 CFG=0
M  V30 1263 H      -2.5520    58.0590   -22.2330 0 CHG=0 CFG=0
M  V30 1264 H      -2.4560    60.5900   -21.6340 0 CHG=0 CFG=0
M  V30 1265 H      -0.9170    59.0280   -23.3760 0 CHG=0 CFG=0
M  V30 1266 H      -0.8480    60.6020   -23.5800 0 CHG=0 CFG=0
M  V30 1267 H      -0.0390    58.1190   -21.4330 0 CHG=0 CFG=0
M  V30 1268 H       0.9160    58.8630   -20.5670 0 CHG=0 CFG=0
M  V30 1269 N      -4.0430    59.9540   -24.3290 0 CHG=0 CFG=0
M  V30 1270 C      -4.9230    60.5930   -25.3180 0 CHG=0 CFG=2
M  V30 1271 C      -6.3710    60.6970   -24.8480 0 CHG=0 CFG=0
M  V30 1272 O      -6.9820    61.7460   -25.0210 0 CHG=0 CFG=0
M  V30 1273 C      -4.8840    59.8860   -26.6660 0 CHG=0 CFG=0
M  V30 1274 C      -3.5130    59.7370   -27.2280 0 CHG=0 CFG=0
M  V30 1275 N      -3.0250    60.5590   -28.2210 0 CHG=0 CFG=0
M  V30 1276 C      -2.5160    58.8650   -26.9300 0 CHG=0 CFG=0
M  V30 1277 C      -1.7850    60.1980   -28.5160 0 CHG=0 CFG=0
M  V30 1278 N      -1.4500    59.1780   -27.7420 0 CHG=1 CFG=0
M  V30 1279 H      -4.0110    59.0960   -24.3710 0 CHG=0 CFG=0
M  V30 1280 H      -4.6010    61.5070   -25.4630 0 CHG=0 CFG=0
M  V30 1281 H      -5.2600    58.9970   -26.5640 0 CHG=0 CFG=0
M  V30 1282 H      -5.4110    60.3950   -27.3010 0 CHG=0 CFG=0
M  V30 1283 H      -3.4580    61.2020   -28.5930 0 CHG=0 CFG=0
M  V30 1284 H      -2.5460    58.1890   -26.2920 0 CHG=0 CFG=0
M  V30 1285 H      -1.2390    60.5980   -29.1540 0 CHG=0 CFG=0
M  V30 1286 H      -0.6930    58.7700   -27.7530 0 CHG=0 CFG=0
M  V30 1287 N      -6.9180    59.6310   -24.2580 0 CHG=0 CFG=0
M  V30 1288 C      -8.3290    59.6330   -23.8810 0 CHG=0 CFG=2
M  V30 1289 C      -8.6650    60.7210   -22.8480 0 CHG=0 CFG=0
M  V30 1290 O      -9.7710    61.3000   -22.8890 0 CHG=0 CFG=0
M  V30 1291 C      -8.8180    58.2390   -23.3760 0 CHG=0 CFG=2
M  V30 1292 O      -8.3440    57.9630   -22.0450 0 CHG=0 CFG=0
M  V30 1293 C      -8.3780    57.1200   -24.3390 0 CHG=0 CFG=0
M  V30 1294 H      -6.4980    58.9060   -24.0670 0 CHG=0 CFG=0
M  V30 1295 H      -8.8500    59.8380   -24.6860 0 CHG=0 CFG=0
M  V30 1296 H      -9.7870    58.2430   -23.3600 0 CHG=0 CFG=0
M  V30 1297 H      -8.6120    57.2280   -21.7990 0 CHG=0 CFG=0
M  V30 1298 H      -8.6850    56.2700   -24.0160 0 CHG=0 CFG=0
M  V30 1299 H      -8.7480    57.2740   -25.2120 0 CHG=0 CFG=0
M  V30 1300 H      -7.4200    57.1010   -24.4050 0 CHG=0 CFG=0
M  V30 1301 N      -7.7340    61.0080   -21.9310 0 CHG=0 CFG=0
M  V30 1302 C      -7.9790    62.0310   -20.9170 0 CHG=0 CFG=2
M  V30 1303 C      -8.1720    63.3920   -21.6230 0 CHG=0 CFG=0
M  V30 1304 O      -8.6790    64.3300   -21.0170 0 CHG=0 CFG=0
M  V30 1305 C      -6.8250    62.1310   -19.9270 0 CHG=0 CFG=0
M  V30 1306 C      -5.6370    62.9090   -20.5470 0 CHG=0 CFG=0
M  V30 1307 C      -4.3680    62.9280   -19.6760 0 CHG=0 CFG=0
M  V30 1308 C      -3.2880    63.8280   -20.3220 0 CHG=0 CFG=0
M  V30 1309 N      -1.9260    63.7140   -19.6890 0 CHG=1 CFG=0
M  V30 1310 H      -6.9630    60.6300   -21.8780 0 CHG=0 CFG=0
M  V30 1311 H      -8.7980    61.8160   -20.4230 0 CHG=0 CFG=0
M  V30 1312 H      -7.1210    62.6040   -19.1340 0 CHG=0 CFG=0
M  V30 1313 H      -6.5200    61.2400   -19.6960 0 CHG=0 CFG=0
M  V30 1314 H      -5.4060    62.5000   -21.3950 0 CHG=0 CFG=0
M  V30 1315 H      -5.9100    63.8290   -20.6910 0 CHG=0 CFG=0
M  V30 1316 H      -4.5820    63.2850   -18.7990 0 CHG=0 CFG=0
M  V30 1317 H      -4.0140    62.0290   -19.5990 0 CHG=0 CFG=0
M  V30 1318 H      -3.1990    63.5850   -21.2570 0 CHG=0 CFG=0
M  V30 1319 H      -3.5700    64.7540   -20.2500 0 CHG=0 CFG=0
M  V30 1320 H      -1.3520    64.2530   -20.1030 0 CHG=0 CFG=0
M  V30 1321 H      -1.9710    63.9440   -18.8300 0 CHG=0 CFG=0
M  V30 1322 H      -1.6320    62.8760   -19.7490 0 CHG=0 CFG=0
M  V30 1323 N      -7.7590    63.4910   -22.8880 0 CHG=0 CFG=0
M  V30 1324 C      -8.0130    64.6790   -23.7140 0 CHG=0 CFG=2
M  V30 1325 C      -9.2910    64.5940   -24.5630 0 CHG=0 CFG=0
M  V30 1326 O      -9.4900    65.4380   -25.4250 0 CHG=0 CFG=0
M  V30 1327 C      -6.8600    64.9370   -24.7020 0 CHG=0 CFG=0
M  V30 1328 C      -5.4550    65.2070   -24.1000 0 CHG=0 CFG=0
M  V30 1329 C      -4.3920    64.8200   -25.1540 0 CHG=0 CFG=0
M  V30 1330 C      -2.9360    64.8420   -24.6570 0 CHG=0 CFG=0
M  V30 1331 N      -1.9720    64.2160   -25.6700 0 CHG=1 CFG=0
M  V30 1332 H      -7.3220    62.8750   -23.2990 0 CHG=0 CFG=0
M  V30 1333 H      -8.0900    65.4610   -23.1290 0 CHG=0 CFG=0
M  V30 1334 H      -6.7790    64.1610   -25.2790 0 CHG=0 CFG=0
M  V30 1335 H      -7.0930    65.7100   -25.2400 0 CHG=0 CFG=0
M  V30 1336 H      -5.3600    66.1500   -23.8910 0 CHG=0 CFG=0
M  V30 1337 H      -5.3240    64.6630   -23.3080 0 CHG=0 CFG=0
M  V30 1338 H      -4.5800    63.9210   -25.4650 0 CHG=0 CFG=0
M  V30 1339 H      -4.4560    65.4400   -25.8970 0 CHG=0 CFG=0
M  V30 1340 H      -2.6650    65.7620   -24.5100 0 CHG=0 CFG=0
M  V30 1341 H      -2.8750    64.3390   -23.8310 0 CHG=0 CFG=0
M  V30 1342 H      -1.1400    64.2440   -25.3550 0 CHG=0 CFG=0
M  V30 1343 H      -2.1970    63.3680   -25.8190 0 CHG=0 CFG=0
M  V30 1344 H      -2.0060    64.6640   -26.4380 0 CHG=0 CFG=0
M  V30 1345 N     -10.1470    63.5980   -24.3390 0 CHG=0 CFG=0
M  V30 1346 C     -11.3830    63.4870   -25.0980 0 CHG=0 CFG=2
M  V30 1347 C     -12.5640    64.2130   -24.4100 0 CHG=0 CFG=0
M  V30 1348 O     -12.5780    64.4020   -23.1960 0 CHG=0 CFG=0
M  V30 1349 C     -11.7410    62.0030   -25.3020 0 CHG=0 CFG=0
M  V30 1350 C     -10.9160    61.2570   -26.3170 0 CHG=0 CFG=0
M  V30 1351 C      -9.9660    61.7690   -27.1410 0 CHG=0 CFG=0
M  V30 1352 C     -10.9840    59.8490   -26.6110 0 CHG=0 CFG=0
M  V30 1353 N      -9.4290    60.7700   -27.9400 0 CHG=0 CFG=0
M  V30 1354 C     -10.0410    59.5830   -27.6240 0 CHG=0 CFG=0
M  V30 1355 C     -11.7560    58.7870   -26.1180 0 CHG=0 CFG=0
M  V30 1356 C      -9.8440    58.3010   -28.1400 0 CHG=0 CFG=0
M  V30 1357 C     -11.5590    57.5270   -26.6310 0 CHG=0 CFG=0
M  V30 1358 C     -10.6070    57.2920   -27.6280 0 CHG=0 CFG=0
M  V30 1359 H     -10.0330    62.9770   -23.7550 0 CHG=0 CFG=0
M  V30 1360 H     -11.2520    63.8910   -25.9810 0 CHG=0 CFG=0
M  V30 1361 H     -11.6380    61.5460   -24.4530 0 CHG=0 CFG=0
M  V30 1362 H     -12.6670    61.9500   -25.5860 0 CHG=0 CFG=0
M  V30 1363 H      -9.7130    62.6640   -27.1680 0 CHG=0 CFG=0
M  V30 1364 H      -8.8090    60.8750   -28.5270 0 CHG=0 CFG=0
M  V30 1365 H     -12.3830    58.9310   -25.4460 0 CHG=0 CFG=0
M  V30 1366 H      -9.2190    58.1420   -28.8100 0 CHG=0 CFG=0
M  V30 1367 H     -12.0620    56.8170   -26.3040 0 CHG=0 CFG=0
M  V30 1368 H     -10.5020    56.4300   -27.9610 0 CHG=0 CFG=0
M  V30 1369 N     -13.5760    64.5920   -25.1770 0 CHG=0 CFG=0
M  V30 1370 C     -14.8020    65.1130   -24.5740 0 CHG=0 CFG=2
M  V30 1371 C     -15.8970    64.0410   -24.4910 0 CHG=0 CFG=0
M  V30 1372 O     -16.0510    63.2220   -25.4040 0 CHG=0 CFG=0
M  V30 1373 C     -15.3170    66.3350   -25.3400 0 CHG=0 CFG=0
M  V30 1374 C     -14.2510    67.4160   -25.5920 0 CHG=0 CFG=0
M  V30 1375 C     -13.7330    68.0170   -24.2820 0 CHG=0 CFG=0
M  V30 1376 C     -12.5370    68.9490   -24.4870 0 CHG=0 CFG=0
M  V30 1377 N     -11.2890    68.2340   -24.9430 0 CHG=1 CFG=0
M  V30 1378 H     -13.5830    64.5600   -26.0360 0 CHG=0 CFG=0
M  V30 1379 H     -14.6020    65.4010   -23.6590 0 CHG=0 CFG=0
M  V30 1380 H     -15.6510    66.0430   -26.2030 0 CHG=0 CFG=0
M  V30 1381 H     -16.0360    66.7420   -24.8320 0 CHG=0 CFG=0
M  V30 1382 H     -13.5000    67.0210   -26.0620 0 CHG=0 CFG=0
M  V30 1383 H     -14.6390    68.1300   -26.1200 0 CHG=0 CFG=0
M  V30 1384 H     -14.4440    68.5300   -23.8660 0 CHG=0 CFG=0
M  V30 1385 H     -13.4550    67.2980   -23.6920 0 CHG=0 CFG=0
M  V30 1386 H     -12.7650    69.6080   -25.1610 0 CHG=0 CFG=0
M  V30 1387 H     -12.3360    69.3910   -23.6470 0 CHG=0 CFG=0
M  V30 1388 H     -10.6260    68.8180   -25.0480 0 CHG=0 CFG=0
M  V30 1389 H     -11.0490    67.6270   -24.3380 0 CHG=0 CFG=0
M  V30 1390 H     -11.4400    67.8250   -25.7190 0 CHG=0 CFG=0
M  V30 1391 N     -16.6550    64.0960   -23.3950 0 CHG=0 CFG=0
M  V30 1392 C     -17.6370    63.1030   -23.0050 0 CHG=0 CFG=2
M  V30 1393 C     -18.9900    63.7200   -22.6600 0 CHG=0 CFG=0
M  V30 1394 O     -19.4240    63.6760   -21.5140 0 CHG=0 CFG=0
M  V30 1395 C     -17.1360    62.3290   -21.7760 0 CHG=0 CFG=0
M  V30 1396 C     -15.8850    61.5790   -22.0160 0 CHG=0 CFG=0
M  V30 1397 C     -15.8810    60.4750   -22.8700 0 CHG=0 CFG=0
M  V30 1398 C     -14.7080    61.9630   -21.4130 0 CHG=0 CFG=0
M  V30 1399 C     -14.7230    59.7670   -23.1140 0 CHG=0 CFG=0
M  V30 1400 C     -13.5340    61.2720   -21.6420 0 CHG=0 CFG=0
M  V30 1401 C     -13.5310    60.1710   -22.4980 0 CHG=0 CFG=0
M  V30 1402 H     -16.6080    64.7450   -22.8320 0 CHG=0 CFG=0
M  V30 1403 H     -17.7660    62.4670   -23.7400 0 CHG=0 CFG=0
M  V30 1404 H     -16.9720    62.9570   -21.0560 0 CHG=0 CFG=0
M  V30 1405 H     -17.8170    61.6920   -21.5080 0 CHG=0 CFG=0
M  V30 1406 H     -16.6720    60.2120   -23.2820 0 CHG=0 CFG=0
M  V30 1407 H     -14.7040    62.7000   -20.8460 0 CHG=0 CFG=0
M  V30 1408 H     -14.7320    59.0330   -23.6850 0 CHG=0 CFG=0
M  V30 1409 H     -12.7470    61.5430   -21.2280 0 CHG=0 CFG=0
M  V30 1410 H     -12.7440    59.7000   -22.6500 0 CHG=0 CFG=0
M  V30 1411 N     -19.6950    64.2470   -23.6640 0 CHG=0 CFG=0
M  V30 1412 C     -20.9830    64.9170   -23.4500 0 CHG=0 CFG=2
M  V30 1413 C     -22.0990    63.9740   -23.0200 0 CHG=0 CFG=0
M  V30 1414 O     -22.0560    62.8100   -23.3900 0 CHG=0 CFG=0
M  V30 1415 C     -21.3000    65.4850   -24.8360 0 CHG=0 CFG=0
M  V30 1416 C     -20.6100    64.5550   -25.7790 0 CHG=0 CFG=0
M  V30 1417 C     -19.3700    64.1010   -25.0950 0 CHG=0 CFG=0
M  V30 1418 H     -20.8940    65.6480   -22.8040 0 CHG=0 CFG=0
M  V30 1419 H     -22.2590    65.4780   -24.9830 0 CHG=0 CFG=0
M  V30 1420 H     -20.9440    66.3830   -24.9140 0 CHG=0 CFG=0
M  V30 1421 H     -21.1890    63.8000   -25.9690 0 CHG=0 CFG=0
M  V30 1422 H     -20.3920    65.0290   -26.5970 0 CHG=0 CFG=0
M  V30 1423 H     -19.1870    63.1720   -25.3070 0 CHG=0 CFG=0
M  V30 1424 H     -18.6240    64.6730   -25.3320 0 CHG=0 CFG=0
M  V30 1425 N     -23.0790    64.4630   -22.2610 0 CHG=0 CFG=0
M  V30 1426 C     -24.3000    63.6840   -22.0320 0 CHG=0 CFG=2
M  V30 1427 C     -25.2060    63.9130   -23.2320 0 CHG=0 CFG=0
M  V30 1428 O     -25.5010    65.0500   -23.5880 0 CHG=0 CFG=0
M  V30 1429 C     -25.0310    64.0680   -20.7310 0 CHG=0 CFG=0
M  V30 1430 C     -24.1430    64.2270   -19.4860 0 CHG=0 CFG=0
M  V30 1431 C     -23.5070    62.9260   -18.9940 0 CHG=0 CFG=0
M  V30 1432 O     -24.1990    61.9560   -18.6220 0 CHG=0 CFG=0
M  V30 1433 N     -22.1790    62.9080   -18.9740 0 CHG=0 CFG=0
M  V30 1434 H     -23.0650    65.2300   -21.8730 0 CHG=0 CFG=0
M  V30 1435 H     -24.0760    62.7310   -21.9910 0 CHG=0 CFG=0
M  V30 1436 H     -25.4840    64.9140   -20.8730 0 CHG=0 CFG=0
M  V30 1437 H     -25.6850    63.3800   -20.5340 0 CHG=0 CFG=0
M  V30 1438 H     -23.4260    64.8470   -19.6930 0 CHG=0 CFG=0
M  V30 1439 H     -24.6840    64.5830   -18.7630 0 CHG=0 CFG=0
M  V30 1440 H     -21.7350    63.6000   -19.2270 0 CHG=0 CFG=0
M  V30 1441 H     -21.7620    62.2040   -18.7070 0 CHG=0 CFG=0
M  V30 1442 N     -25.6240    62.8180   -23.8550 0 CHG=0 CFG=0
M  V30 1443 C     -26.4190    62.8380   -25.0780 0 CHG=0 CFG=2
M  V30 1444 C     -27.5890    61.8750   -24.8830 0 CHG=0 CFG=0
M  V30 1445 O     -27.4050    60.7050   -24.5290 0 CHG=0 CFG=0
M  V30 1446 C     -25.5720    62.4300   -26.2950 0 CHG=0 CFG=0
M  V30 1447 C     -26.3070    62.7170   -27.5840 0 CHG=0 CFG=0
M  V30 1448 C     -24.2490    63.1810   -26.3090 0 CHG=0 CFG=0
M  V30 1449 H     -25.4530    62.0220   -23.5770 0 CHG=0 CFG=0
M  V30 1450 H     -26.7730    63.7400   -25.2290 0 CHG=0 CFG=0
M  V30 1451 H     -25.3830    61.4690   -26.2530 0 CHG=0 CFG=0
M  V30 1452 H     -25.7540    62.4510   -28.3240 0 CHG=0 CFG=0
M  V30 1453 H     -27.1280    62.2190   -27.5930 0 CHG=0 CFG=0
M  V30 1454 H     -26.4930    63.6570   -27.6350 0 CHG=0 CFG=0
M  V30 1455 H     -23.7430    62.9060   -27.0770 0 CHG=0 CFG=0
M  V30 1456 H     -24.4260    64.1230   -26.3530 0 CHG=0 CFG=0
M  V30 1457 H     -23.7650    62.9750   -25.5060 0 CHG=0 CFG=0
M  V30 1458 N     -28.7980    62.3840   -25.0740 0 CHG=0 CFG=0
M  V30 1459 C     -30.0100    61.6310   -24.7850 0 CHG=0 CFG=0
M  V30 1460 C     -29.9700    60.9230   -23.4460 0 CHG=0 CFG=0
M  V30 1461 O     -30.5030    59.8230   -23.2960 0 CHG=0 CFG=0
M  V30 1462 H     -28.9450    63.1760   -25.3750 0 CHG=0 CFG=0
M  V30 1463 H     -30.7700    62.2350   -24.7870 0 CHG=0 CFG=0
M  V30 1464 H     -30.1470    60.9660   -25.4770 0 CHG=0 CFG=0
M  V30 1465 N     -29.3290    61.5390   -22.4680 0 CHG=0 CFG=0
M  V30 1466 C     -29.3120    60.9730   -21.1260 0 CHG=0 CFG=0
M  V30 1467 C     -28.0990    60.0950   -20.8330 0 CHG=0 CFG=0
M  V30 1468 O     -27.9090    59.6720   -19.7000 0 CHG=0 CFG=0
M  V30 1469 H     -28.8990    62.2790   -22.5500 0 CHG=0 CFG=0
M  V30 1470 H     -29.3250    61.6940   -20.4780 0 CHG=0 CFG=0
M  V30 1471 H     -30.1100    60.4370   -20.9980 0 CHG=0 CFG=0
M  V30 1472 N     -27.2610    59.8390   -21.8400 0 CHG=0 CFG=0
M  V30 1473 C     -26.1550    58.8830   -21.6940 0 CHG=0 CFG=2
M  V30 1474 C     -24.7910    59.5310   -21.8770 0 CHG=0 CFG=0
M  V30 1475 O     -24.6600    60.5150   -22.6100 0 CHG=0 CFG=0
M  V30 1476 C     -26.3210    57.7540   -22.7250 0 CHG=0 CFG=0
M  V30 1477 C     -27.6080    56.9090   -22.6780 0 CHG=0 CFG=0
M  V30 1478 C     -27.6660    56.0330   -23.8530 0 CHG=0 CFG=0
M  V30 1479 C     -27.6280    56.0540   -21.4370 0 CHG=0 CFG=0
M  V30 1480 H     -27.3090    60.2040   -22.6170 0 CHG=0 CFG=0
M  V30 1481 H     -26.1880    58.4870   -20.7980 0 CHG=0 CFG=0
M  V30 1482 H     -26.2770    58.1500   -23.6090 0 CHG=0 CFG=0
M  V30 1483 H     -25.5770    57.1410   -22.6160 0 CHG=0 CFG=0
M  V30 1484 H     -28.3860    57.4870   -22.6760 0 CHG=0 CFG=0
M  V30 1485 H     -28.4710    55.5110   -23.8140 0 CHG=0 CFG=0
M  V30 1486 H     -27.6650    56.5740   -24.6460 0 CHG=0 CFG=0
M  V30 1487 H     -26.9000    55.4540   -23.8490 0 CHG=0 CFG=0
M  V30 1488 H     -28.4360    55.5360   -21.4270 0 CHG=0 CFG=0
M  V30 1489 H     -26.8650    55.4710   -21.4470 0 CHG=0 CFG=0
M  V30 1490 H     -27.5940    56.6240   -20.6650 0 CHG=0 CFG=0
M  V30 1491 N     -23.7550    59.0000   -21.2260 0 CHG=0 CFG=0
M  V30 1492 C     -22.4140    59.4580   -21.5800 0 CHG=0 CFG=2
M  V30 1493 C     -22.0090    58.9130   -22.9640 0 CHG=0 CFG=0
M  V30 1494 O     -22.2070    57.7460   -23.2650 0 CHG=0 CFG=0
M  V30 1495 C     -21.3540    59.0490   -20.5970 0 CHG=0 CFG=2
M  V30 1496 O     -21.8270    59.2700   -19.2670 0 CHG=0 CFG=0
M  V30 1497 C     -20.0610    59.8810   -20.8600 0 CHG=0 CFG=0
M  V30 1498 H     -23.7970    58.4040   -20.6080 0 CHG=0 CFG=0
M  V30 1499 H     -22.4170    60.4360   -21.6300 0 CHG=0 CFG=0
M  V30 1500 H     -21.1460    58.1090   -20.7160 0 CHG=0 CFG=0
M  V30 1501 H     -21.2530    59.0490   -18.7250 0 CHG=0 CFG=0
M  V30 1502 H     -19.3760    59.6280   -20.2370 0 CHG=0 CFG=0
M  V30 1503 H     -19.7450    59.7230   -21.7530 0 CHG=0 CFG=0
M  V30 1504 H     -20.2470    60.8180   -20.7560 0 CHG=0 CFG=0
M  V30 1505 N     -21.4370    59.7780   -23.7870 0 CHG=0 CFG=0
M  V30 1506 C     -21.0060    59.4180   -25.1030 0 CHG=0 CFG=2
M  V30 1507 C     -19.6850    60.1330   -25.3430 0 CHG=0 CFG=0
M  V30 1508 O     -19.1850    60.8480   -24.4500 0 CHG=0 CFG=0
M  V30 1509 C     -22.0660    59.8710   -26.1220 0 CHG=0 CFG=0
M  V30 1510 O     -21.4670    60.1680   -27.3600 0 CHG=0 CFG=0
M  V30 1511 H     -21.2880    60.6010   -23.5900 0 CHG=0 CFG=0
M  V30 1512 H     -20.8740    58.4490   -25.1720 0 CHG=0 CFG=0
M  V30 1513 H     -22.7120    59.1580   -26.2450 0 CHG=0 CFG=0
M  V30 1514 H     -22.5080    60.6660   -25.7860 0 CHG=0 CFG=0
M  V30 1515 H     -22.0380    60.4090   -27.8970 0 CHG=0 CFG=0
M  V30 1516 N     -19.1190    59.9720   -26.5350 0 CHG=0 CFG=0
M  V30 1517 C     -17.8240    60.5740   -26.8280 0 CHG=0 CFG=2
M  V30 1518 C     -17.8860    61.4760   -28.0700 0 CHG=0 CFG=0
M  V30 1519 O     -18.4360    61.1020   -29.1220 0 CHG=0 CFG=0
M  V30 1520 C     -16.7000    59.4920   -27.0210 0 CHG=0 CFG=2
M  V30 1521 C     -16.9010    58.3180   -26.0660 0 CHG=0 CFG=0
M  V30 1522 C     -15.3210    60.1020   -26.8260 0 CHG=0 CFG=0
M  V30 1523 C     -15.8980    57.1650   -26.2690 0 CHG=0 CFG=0
M  V30 1524 H     -19.4600    59.5240   -27.1850 0 CHG=0 CFG=0
M  V30 1525 H     -17.5650    61.1360   -26.0680 0 CHG=0 CFG=0
M  V30 1526 H     -16.7570    59.1560   -27.9290 0 CHG=0 CFG=0
M  V30 1527 H     -16.8040    58.6370   -25.1550 0 CHG=0 CFG=0
M  V30 1528 H     -17.7930    57.9600   -26.1950 0 CHG=0 CFG=0
M  V30 1529 H     -14.6570    59.4190   -26.9500 0 CHG=0 CFG=0
M  V30 1530 H     -15.1950    60.8020   -27.4710 0 CHG=0 CFG=0
M  V30 1531 H     -15.2600    60.4600   -25.9370 0 CHG=0 CFG=0
M  V30 1532 H     -16.0890    56.4700   -25.6340 0 CHG=0 CFG=0
M  V30 1533 H     -15.9880    56.8270   -27.1630 0 CHG=0 CFG=0
M  V30 1534 H     -15.0080    57.4980   -26.1320 0 CHG=0 CFG=0
M  V30 1535 N     -17.3220    62.6710   -27.9390 0 CHG=0 CFG=0
M  V30 1536 C     -17.1210    63.5270   -29.0960 0 CHG=0 CFG=2
M  V30 1537 C     -16.1770    62.8040   -30.0180 0 CHG=0 CFG=0
M  V30 1538 O     -15.1550    62.2460   -29.5700 0 CHG=0 CFG=0
M  V30 1539 C     -16.4940    64.8610   -28.7010 0 CHG=0 CFG=0
M  V30 1540 C     -16.7870    65.9670   -29.7000 0 CHG=0 CFG=0
M  V30 1541 C     -16.3050    67.3120   -29.1940 0 CHG=0 CFG=0
M  V30 1542 C     -14.8000    67.4700   -29.3670 0 CHG=0 CFG=0
M  V30 1543 N     -14.4400    67.7890   -30.7870 0 CHG=1 CFG=0
M  V30 1544 H     -17.0500    63.0060   -27.1950 0 CHG=0 CFG=0
M  V30 1545 H     -17.9710    63.6880   -29.5570 0 CHG=0 CFG=0
M  V30 1546 H     -16.8470    65.1340   -27.8400 0 CHG=0 CFG=0
M  V30 1547 H     -15.5310    64.7540   -28.6460 0 CHG=0 CFG=0
M  V30 1548 H     -16.3300    65.7750   -30.5340 0 CHG=0 CFG=0
M  V30 1549 H     -17.7440    66.0220   -29.8460 0 CHG=0 CFG=0
M  V30 1550 H     -16.7440    68.0180   -29.6930 0 CHG=0 CFG=0
M  V30 1551 H     -16.5110    67.3900   -28.2490 0 CHG=0 CFG=0
M  V30 1552 H     -14.4870    68.1960   -28.8040 0 CHG=0 CFG=0
M  V30 1553 H     -14.3600    66.6410   -29.1210 0 CHG=0 CFG=0
M  V30 1554 H     -13.5580    67.8770   -30.8650 0 CHG=0 CFG=0
M  V30 1555 H     -14.7140    67.1340   -31.3250 0 CHG=0 CFG=0
M  V30 1556 H     -14.8300    68.5490   -31.0360 0 CHG=0 CFG=0
M  V30 1557 N     -16.5080    62.7980   -31.3010 0 CHG=0 CFG=0
M  V30 1558 C     -15.6730    62.0870   -32.2470 0 CHG=0 CFG=2
M  V30 1559 C     -14.2300    62.5890   -32.1950 0 CHG=0 CFG=0
M  V30 1560 O     -13.9990    63.7800   -32.1560 0 CHG=0 CFG=0
M  V30 1561 C     -16.1900    62.2040   -33.6780 0 CHG=0 CFG=0
M  V30 1562 C     -15.4450    61.2640   -34.5570 0 CHG=0 CFG=0
M  V30 1563 C     -15.7820    59.9690   -34.8370 0 CHG=0 CFG=0
M  V30 1564 C     -14.2010    61.5060   -35.2190 0 CHG=0 CFG=0
M  V30 1565 N     -14.8320    59.3920   -35.6320 0 CHG=0 CFG=0
M  V30 1566 C     -13.8550    60.3140   -35.9000 0 CHG=0 CFG=0
M  V30 1567 C     -13.3460    62.6100   -35.3130 0 CHG=0 CFG=0
M  V30 1568 C     -12.6830    60.1960   -36.6790 0 CHG=0 CFG=0
M  V30 1569 C     -12.1750    62.4890   -36.0960 0 CHG=0 CFG=0
M  V30 1570 C     -11.8590    61.2840   -36.7580 0 CHG=0 CFG=0
M  V30 1571 H     -17.1950    63.1880   -31.6400 0 CHG=0 CFG=0
M  V30 1572 H     -15.6670    61.1360   -32.0090 0 CHG=0 CFG=0
M  V30 1573 H     -17.1320    61.9720   -33.7040 0 CHG=0 CFG=0
M  V30 1574 H     -16.0510    63.1070   -34.0020 0 CHG=0 CFG=0
M  V30 1575 H     -16.5410    59.5370   -34.5190 0 CHG=0 CFG=0
M  V30 1576 H     -14.8600    58.5900   -35.9400 0 CHG=0 CFG=0
M  V30 1577 H     -13.5480    63.4070   -34.8780 0 CHG=0 CFG=0
M  V30 1578 H     -12.4740    59.4030   -37.1170 0 CHG=0 CFG=0
M  V30 1579 H     -11.5990    63.2160   -36.1710 0 CHG=0 CFG=0
M  V30 1580 H     -11.0840    61.2340   -37.2690 0 CHG=0 CFG=0
M  V30 1581 N     -13.2900    61.6480   -32.1460 0 CHG=0 CFG=0
M  V30 1582 C     -11.8680    61.8750   -32.3550 0 CHG=0 CFG=2
M  V30 1583 C     -11.1810    60.5110   -32.5100 0 CHG=0 CFG=0
M  V30 1584 O     -11.6720    59.5000   -31.9790 0 CHG=0 CFG=0
M  V30 1585 C     -11.2790    62.6320   -31.1860 0 CHG=0 CFG=0
M  V30 1586 H     -13.4680    60.8220   -31.9830 0 CHG=0 CFG=0
M  V30 1587 H     -11.7300    62.3960   -33.1730 0 CHG=0 CFG=0
M  V30 1588 H     -10.3420    62.7700   -31.3440 0 CHG=0 CFG=0
M  V30 1589 H     -11.7260    63.4770   -31.1040 0 CHG=0 CFG=0
M  V30 1590 H     -11.4040    62.1160   -30.3850 0 CHG=0 CFG=0
M  V30 1591 N     -10.0620    60.4740   -33.2330 0 CHG=0 CFG=0
M  V30 1592 C      -9.1640    59.3090   -33.2290 0 CHG=0 CFG=2
M  V30 1593 C      -9.8810    58.0090   -33.5910 0 CHG=0 CFG=0
M  V30 1594 O      -9.5780    56.9140   -33.0580 0 CHG=0 CFG=0
M  V30 1595 C      -8.5320    59.1460   -31.8520 0 CHG=0 CFG=0
M  V30 1596 C      -7.6020    60.3070   -31.4840 0 CHG=0 CFG=0
M  V30 1597 O      -6.9000    60.7900   -32.4090 0 CHG=0 CFG=0
M  V30 1598 O      -7.5840    60.7170   -30.2740 0 CHG=0 CFG=0
M  V30 1599 H      -9.7960    61.1160   -33.7400 0 CHG=0 CFG=0
M  V30 1600 H      -8.4460    59.4540   -33.8810 0 CHG=0 CFG=0
M  V30 1601 H      -9.2350    59.1020   -31.1850 0 CHG=0 CFG=0
M  V30 1602 H      -8.0100    58.3290   -31.8380 0 CHG=0 CFG=0
M  V30 1603 N     -10.8560    58.1280   -34.4750 0 CHG=0 CFG=0
M  V30 1604 C     -11.6270    56.9620   -34.8440 0 CHG=0 CFG=2
M  V30 1605 C     -12.2390    56.2520   -33.6440 0 CHG=0 CFG=0
M  V30 1606 O     -12.3380    55.0280   -33.6280 0 CHG=0 CFG=0
M  V30 1607 C     -10.7350    56.0250   -35.6250 0 CHG=0 CFG=0
M  V30 1608 C     -10.4490    56.5390   -37.0170 0 CHG=0 CFG=0
M  V30 1609 O     -11.2470    57.2680   -37.5910 0 CHG=0 CFG=0
M  V30 1610 N      -9.3370    56.1420   -37.5730 0 CHG=0 CFG=0
M  V30 1611 H     -11.0860    58.8570   -34.8670 0 CHG=0 CFG=0
M  V30 1612 H     -12.3590    57.2400   -35.4320 0 CHG=0 CFG=0
M  V30 1613 H      -9.8900    55.9280   -35.1600 0 CHG=0 CFG=0
M  V30 1614 H     -11.1720    55.1630   -35.7050 0 CHG=0 CFG=0
M  V30 1615 H      -8.8090    55.6130   -37.1470 0 CHG=0 CFG=0
M  V30 1616 H      -9.1330    56.4090   -38.3640 0 CHG=0 CFG=0
M  V30 1617 N     -12.6910    57.0360   -32.6640 0 CHG=0 CFG=0
M  V30 1618 C     -13.2970    56.4980   -31.4540 0 CHG=0 CFG=2
M  V30 1619 C     -14.8080    56.1910   -31.4650 0 CHG=0 CFG=0
M  V30 1620 O     -15.3450    55.7520   -30.4570 0 CHG=0 CFG=0
M  V30 1621 C     -13.0020    57.4200   -30.2790 0 CHG=0 CFG=0
M  V30 1622 C     -13.7120    58.7360   -30.3780 0 CHG=0 CFG=0
M  V30 1623 O     -14.5700    58.9510   -31.2710 0 CHG=0 CFG=0
M  V30 1624 N     -13.3710    59.6490   -29.4500 0 CHG=0 CFG=0
M  V30 1625 H     -12.6560    57.8950   -32.6810 0 CHG=0 CFG=0
M  V30 1626 H     -12.8480    55.6490   -31.2600 0 CHG=0 CFG=0
M  V30 1627 H     -13.2870    56.9870   -29.4590 0 CHG=0 CFG=0
M  V30 1628 H     -12.0490    57.5960   -30.2480 0 CHG=0 CFG=0
M  V30 1629 H     -12.7810    59.4570   -28.8540 0 CHG=0 CFG=0
M  V30 1630 H     -13.7430    60.4240   -29.4530 0 CHG=0 CFG=0
M  V30 1631 N     -15.4980    56.5260   -32.5400 0 CHG=0 CFG=0
M  V30 1632 C     -16.6400    55.7530   -33.0070 0 CHG=0 CFG=1
M  V30 1633 C     -16.0140    54.9010   -34.0730 0 CHG=0 CFG=0
M  V30 1634 S     -16.2440    55.6010   -35.5810 0 CHG=0 CFG=0
M  V30 1635 C     -17.1950    54.5880   -32.2390 0 CHG=0 CFG=0
M  V30 1636 O     -18.3050    54.5820   -31.7010 0 CHG=0 CFG=0
M  V30 1637 O     -15.0560    56.2490   -36.0160 0 CHG=-1 CFG=0
M  V30 1638 O     -17.2690    56.5080   -35.2720 0 CHG=0 CFG=0
M  V30 1639 O     -16.6730    54.5730   -36.4130 0 CHG=0 CFG=0
M  V30 1640 H     -15.2070    57.3977   -33.0880 0 CHG=0 CFG=0
M  V30 1641 H     -17.4285    56.3911   -33.4059 0 CHG=0 CFG=0
M  V30 1642 H     -14.9456    54.8076   -33.8783 0 CHG=0 CFG=0
M  V30 1643 H     -16.4738    53.9128   -34.0606 0 CHG=0 CFG=0
M  V30 1644 N     -16.3860    53.5320   -32.3510 0 CHG=0 CFG=0
M  V30 1645 C     -16.7450    52.2240   -31.9740 0 CHG=0 CFG=2
M  V30 1646 C     -16.6910    52.1660   -30.4750 0 CHG=0 CFG=0
M  V30 1647 O     -17.4430    51.4460   -29.8940 0 CHG=0 CFG=0
M  V30 1648 C     -15.7880    51.2150   -32.6710 0 CHG=0 CFG=0
M  V30 1649 C     -14.3720    51.1090   -32.1380 0 CHG=0 CFG=0
M  V30 1650 C     -13.3840    52.0460   -32.4490 0 CHG=0 CFG=0
M  V30 1651 C     -14.0120    50.0420   -31.3380 0 CHG=0 CFG=0
M  V30 1652 C     -12.0940    51.9270   -31.9360 0 CHG=0 CFG=0
M  V30 1653 C     -12.7390    49.9210   -30.8380 0 CHG=0 CFG=0
M  V30 1654 C     -11.7930    50.8500   -31.1410 0 CHG=0 CFG=0
M  V30 1655 O     -10.5560    50.6570   -30.5990 0 CHG=0 CFG=0
M  V30 1656 H     -15.5860    53.5820   -32.6640 0 CHG=0 CFG=0
M  V30 1657 H     -17.6620    52.0370   -32.2630 0 CHG=0 CFG=0
M  V30 1658 H     -16.1830    50.3320   -32.6030 0 CHG=0 CFG=0
M  V30 1659 H     -15.7210    51.4630   -33.6060 0 CHG=0 CFG=0
M  V30 1660 H     -13.5980    52.7760   -32.9850 0 CHG=0 CFG=0
M  V30 1661 H     -14.6500    49.4020   -31.1190 0 CHG=0 CFG=0
M  V30 1662 H     -11.4430    52.5590   -32.1420 0 CHG=0 CFG=0
M  V30 1663 H     -12.5220    49.1990   -30.2940 0 CHG=0 CFG=0
M  V30 1664 H     -10.2440    49.9450   -30.8600 0 CHG=0 CFG=0
M  V30 1665 N     -15.8250    52.9550   -29.8380 0 CHG=0 CFG=0
M  V30 1666 C     -15.7750    52.9970   -28.3810 0 CHG=0 CFG=2
M  V30 1667 C     -16.9660    53.7480   -27.8890 0 CHG=0 CFG=0
M  V30 1668 O     -17.6030    53.3940   -26.8910 0 CHG=0 CFG=0
M  V30 1669 C     -14.5070    53.6750   -27.9210 0 CHG=0 CFG=0
M  V30 1670 C     -13.2420    52.8990   -28.2860 0 CHG=0 CFG=0
M  V30 1671 C     -12.0240    53.7060   -27.9950 0 CHG=0 CFG=0
M  V30 1672 C     -13.2240    51.6270   -27.5090 0 CHG=0 CFG=0
M  V30 1673 H     -15.2590    53.4730   -30.2270 0 CHG=0 CFG=0
M  V30 1674 H     -15.7990    52.0860   -28.0180 0 CHG=0 CFG=0
M  V30 1675 H     -14.4500    54.5500   -28.3360 0 CHG=0 CFG=0
M  V30 1676 H     -14.5320    53.7670   -26.9560 0 CHG=0 CFG=0
M  V30 1677 H     -13.2530    52.6840   -29.2310 0 CHG=0 CFG=0
M  V30 1678 H     -11.2480    53.1950   -28.2340 0 CHG=0 CFG=0
M  V30 1679 H     -12.0560    54.5150   -28.5110 0 CHG=0 CFG=0
M  V30 1680 H     -12.0050    53.9150   -27.0590 0 CHG=0 CFG=0
M  V30 1681 H     -12.4310    51.1350   -27.7340 0 CHG=0 CFG=0
M  V30 1682 H     -13.2260    51.8340   -26.5710 0 CHG=0 CFG=0
M  V30 1683 H     -14.0030    51.1130   -27.7330 0 CHG=0 CFG=0
M  V30 1684 N     -17.2990    54.7890   -28.6250 0 CHG=0 CFG=0
M  V30 1685 C     -18.5000    55.5380   -28.3230 0 CHG=0 CFG=2
M  V30 1686 C     -19.7310    54.6120   -28.3490 0 CHG=0 CFG=0
M  V30 1687 O     -20.5330    54.6070   -27.4030 0 CHG=0 CFG=0
M  V30 1688 C     -18.6500    56.7000   -29.2930 0 CHG=0 CFG=0
M  V30 1689 O     -19.6210    57.5890   -28.8110 0 CHG=0 CFG=0
M  V30 1690 H     -16.8520    55.0810   -29.2990 0 CHG=0 CFG=0
M  V30 1691 H     -18.4230    55.9090   -27.4190 0 CHG=0 CFG=0
M  V30 1692 H     -17.8020    57.1640   -29.3690 0 CHG=0 CFG=0
M  V30 1693 H     -18.9270    56.3610   -30.1580 0 CHG=0 CFG=0
M  V30 1694 H     -19.7070    58.2180   -29.3300 0 CHG=0 CFG=0
M  V30 1695 N     -19.8710    53.7930   -29.3900 0 CHG=0 CFG=0
M  V30 1696 C     -20.9760    52.8330   -29.4020 0 CHG=0 CFG=2
M  V30 1697 C     -20.9110    51.7900   -28.2720 0 CHG=0 CFG=0
M  V30 1698 O     -21.9350    51.3630   -27.7500 0 CHG=0 CFG=0
M  V30 1699 C     -21.0510    52.1350   -30.7430 0 CHG=0 CFG=0
M  V30 1700 O     -21.5660    53.0270   -31.6940 0 CHG=0 CFG=0
M  V30 1701 H     -19.3580    53.7700   -30.0800 0 CHG=0 CFG=0
M  V30 1702 H     -21.8130    53.3300   -29.2870 0 CHG=0 CFG=0
M  V30 1703 H     -20.1610    51.8570   -31.0110 0 CHG=0 CFG=0
M  V30 1704 H     -21.6370    51.3650   -30.6730 0 CHG=0 CFG=0
M  V30 1705 H     -21.6110    52.6610   -32.4260 0 CHG=0 CFG=0
M  V30 1706 N     -19.7090    51.3680   -27.8940 0 CHG=0 CFG=0
M  V30 1707 C     -19.5810    50.3400   -26.8640 0 CHG=0 CFG=2
M  V30 1708 C     -20.0560    50.9320   -25.5470 0 CHG=0 CFG=0
M  V30 1709 O     -20.8790    50.3580   -24.8550 0 CHG=0 CFG=0
M  V30 1710 C     -18.1120    49.8530   -26.7140 0 CHG=0 CFG=0
M  V30 1711 C     -17.9580    48.9440   -25.5040 0 CHG=0 CFG=0
M  V30 1712 C     -17.6510    49.1450   -27.9760 0 CHG=0 CFG=0
M  V30 1713 H     -18.9630    51.6540   -28.2110 0 CHG=0 CFG=0
M  V30 1714 H     -20.1480    49.5730   -27.0880 0 CHG=0 CFG=0
M  V30 1715 H     -17.5330    50.6320   -26.5790 0 CHG=0 CFG=0
M  V30 1716 H     -17.0420    48.6610   -25.4410 0 CHG=0 CFG=0
M  V30 1717 H     -18.2060    49.4300   -24.7150 0 CHG=0 CFG=0
M  V30 1718 H     -18.5290    48.1800   -25.6130 0 CHG=0 CFG=0
M  V30 1719 H     -16.7430    48.8560   -27.8580 0 CHG=0 CFG=0
M  V30 1720 H     -18.2190    48.3880   -28.1350 0 CHG=0 CFG=0
M  V30 1721 H     -17.7060    49.7570   -28.7150 0 CHG=0 CFG=0
M  V30 1722 N     -19.4890    52.0780   -25.2070 0 CHG=0 CFG=0
M  V30 1723 C     -19.8570    52.8140   -24.0090 0 CHG=0 CFG=2
M  V30 1724 C     -21.3630    53.1510   -23.9330 0 CHG=0 CFG=0
M  V30 1725 O     -21.9850    53.0020   -22.8720 0 CHG=0 CFG=0
M  V30 1726 C     -19.0470    54.0950   -23.9740 0 CHG=0 CFG=0
M  V30 1727 C     -19.4220    55.1600   -22.9500 0 CHG=0 CFG=0
M  V30 1728 C     -19.4820    54.5920   -21.5520 0 CHG=0 CFG=0
M  V30 1729 C     -18.3620    56.2840   -23.0290 0 CHG=0 CFG=0
M  V30 1730 H     -18.8710    52.4610   -25.6680 0 CHG=0 CFG=0
M  V30 1731 H     -19.6230    52.2820   -23.2200 0 CHG=0 CFG=0
M  V30 1732 H     -18.1220    53.8570   -23.8050 0 CHG=0 CFG=0
M  V30 1733 H     -19.1110    54.5110   -24.8480 0 CHG=0 CFG=0
M  V30 1734 H     -20.2890    55.5350   -23.1710 0 CHG=0 CFG=0
M  V30 1735 H     -19.7210    55.2930   -20.9400 0 CHG=0 CFG=0
M  V30 1736 H     -20.1420    53.8960   -21.5260 0 CHG=0 CFG=0
M  V30 1737 H     -18.6210    54.2370   -21.3230 0 CHG=0 CFG=0
M  V30 1738 H     -18.5820    56.9650   -22.3900 0 CHG=0 CFG=0
M  V30 1739 H     -17.5000    55.9130   -22.8290 0 CHG=0 CFG=0
M  V30 1740 H     -18.3630    56.6520   -23.9150 0 CHG=0 CFG=0
M  V30 1741 N     -21.9710    53.5770   -25.0450 0 CHG=0 CFG=0
M  V30 1742 C     -23.3820    53.8970   -24.9660 0 CHG=0 CFG=2
M  V30 1743 C     -24.1840    52.6340   -24.7440 0 CHG=0 CFG=0
M  V30 1744 O     -25.1070    52.6190   -23.9430 0 CHG=0 CFG=0
M  V30 1745 C     -23.8790    54.6270   -26.1890 0 CHG=0 CFG=0
M  V30 1746 C     -23.4690    56.0930   -26.2150 0 CHG=0 CFG=0
M  V30 1747 C     -23.3580    56.5830   -27.6710 0 CHG=0 CFG=0
M  V30 1748 C     -24.4690    56.9290   -25.4160 0 CHG=0 CFG=0
M  V30 1749 H     -21.6050    53.6820   -25.8160 0 CHG=0 CFG=0
M  V30 1750 H     -23.5270    54.4820   -24.1930 0 CHG=0 CFG=0
M  V30 1751 H     -23.5140    54.2000   -26.9800 0 CHG=0 CFG=0
M  V30 1752 H     -24.8480    54.5860   -26.2080 0 CHG=0 CFG=0
M  V30 1753 H     -22.5980    56.1860   -25.7990 0 CHG=0 CFG=0
M  V30 1754 H     -23.0990    57.5070   -27.6700 0 CHG=0 CFG=0
M  V30 1755 H     -22.6970    56.0580   -28.1270 0 CHG=0 CFG=0
M  V30 1756 H     -24.2110    56.4810   -28.1000 0 CHG=0 CFG=0
M  V30 1757 H     -24.1970    57.8490   -25.4420 0 CHG=0 CFG=0
M  V30 1758 H     -25.3400    56.8330   -25.8080 0 CHG=0 CFG=0
M  V30 1759 H     -24.4820    56.6170   -24.5080 0 CHG=0 CFG=0
M  V30 1760 N     -23.8580    51.5640   -25.4450 0 CHG=0 CFG=0
M  V30 1761 C     -24.6050    50.3240   -25.2480 0 CHG=0 CFG=2
M  V30 1762 C     -24.4560    49.7160   -23.8090 0 CHG=0 CFG=0
M  V30 1763 O     -25.4460    49.2560   -23.2350 0 CHG=0 CFG=0
M  V30 1764 C     -24.2170    49.3250   -26.2750 0 CHG=0 CFG=0
M  V30 1765 H     -23.2260    51.5230   -26.0280 0 CHG=0 CFG=0
M  V30 1766 H     -25.5570    50.5180   -25.3810 0 CHG=0 CFG=0
M  V30 1767 H     -24.7170    48.5180   -26.1310 0 CHG=0 CFG=0
M  V30 1768 H     -24.4120    49.6800   -27.1450 0 CHG=0 CFG=0
M  V30 1769 H     -23.2770    49.1460   -26.1970 0 CHG=0 CFG=0
M  V30 1770 N     -23.2540    49.7150   -23.2420 0 CHG=0 CFG=0
M  V30 1771 C     -23.0750    49.1510   -21.9050 0 CHG=0 CFG=2
M  V30 1772 C     -23.9980    49.8630   -20.9060 0 CHG=0 CFG=0
M  V30 1773 O     -24.5950    49.2290   -20.0300 0 CHG=0 CFG=0
M  V30 1774 C     -21.6140    49.2150   -21.4450 0 CHG=0 CFG=0
M  V30 1775 C     -20.6410    48.2770   -22.1900 0 CHG=0 CFG=0
M  V30 1776 C     -19.1880    48.5320   -21.8390 0 CHG=0 CFG=0
M  V30 1777 C     -20.9400    46.7990   -21.9400 0 CHG=0 CFG=0
M  V30 1778 H     -22.5380    50.0280   -23.6010 0 CHG=0 CFG=0
M  V30 1779 H     -23.3360    48.2070   -21.9280 0 CHG=0 CFG=0
M  V30 1780 H     -21.2930    50.1230   -21.5680 0 CHG=0 CFG=0
M  V30 1781 H     -21.5780    48.9840   -20.5040 0 CHG=0 CFG=0
M  V30 1782 H     -20.7390    48.4330   -23.1430 0 CHG=0 CFG=0
M  V30 1783 H     -18.6360    47.9200   -22.3310 0 CHG=0 CFG=0
M  V30 1784 H     -18.9650    49.4360   -22.0720 0 CHG=0 CFG=0
M  V30 1785 H     -19.0670    48.3970   -20.8960 0 CHG=0 CFG=0
M  V30 1786 H     -20.3070    46.2660   -22.4260 0 CHG=0 CFG=0
M  V30 1787 H     -20.8660    46.6210   -21.0000 0 CHG=0 CFG=0
M  V30 1788 H     -21.8310    46.6060   -22.2410 0 CHG=0 CFG=0
M  V30 1789 N     -24.1540    51.1740   -21.0790 0 CHG=0 CFG=0
M  V30 1790 C     -24.9010    51.9760   -20.1170 0 CHG=0 CFG=2
M  V30 1791 C     -26.3930    51.5830   -20.0950 0 CHG=0 CFG=0
M  V30 1792 O     -27.1840    52.1160   -19.3290 0 CHG=0 CFG=0
M  V30 1793 C     -24.7590    53.4630   -20.4440 0 CHG=0 CFG=0
M  V30 1794 C     -23.4190    54.0260   -20.1360 0 CHG=0 CFG=0
M  V30 1795 C     -23.2450    55.4250   -20.7080 0 CHG=0 CFG=0
M  V30 1796 O     -23.6730    56.4120   -20.1250 0 CHG=0 CFG=0
M  V30 1797 N     -22.6010    55.5100   -21.8600 0 CHG=0 CFG=0
M  V30 1798 H     -23.8380    51.6210   -21.7420 0 CHG=0 CFG=0
M  V30 1799 H     -24.5340    51.8250   -19.2210 0 CHG=0 CFG=0
M  V30 1800 H     -24.9220    53.5910   -21.3920 0 CHG=0 CFG=0
M  V30 1801 H     -25.4140    53.9600   -19.9290 0 CHG=0 CFG=0
M  V30 1802 H     -23.3080    54.0760   -19.1740 0 CHG=0 CFG=0
M  V30 1803 H     -22.7370    53.4540   -20.5220 0 CHG=0 CFG=0
M  V30 1804 H     -22.3070    54.7980   -22.2420 0 CHG=0 CFG=0
M  V30 1805 H     -22.4750    56.2780   -22.2260 0 CHG=0 CFG=0
M  V30 1806 N     -26.7710    50.6490   -20.9450 0 CHG=0 CFG=0
M  V30 1807 C     -28.1560    50.2800   -21.0660 0 CHG=0 CFG=2
M  V30 1808 C     -28.3480    48.8070   -20.7210 0 CHG=0 CFG=0
M  V30 1809 O     -29.4670    48.2910   -20.7120 0 CHG=0 CFG=0
M  V30 1810 C     -28.6250    50.5500   -22.5010 0 CHG=0 CFG=0
M  V30 1811 C     -28.5440    52.0030   -22.8990 0 CHG=0 CFG=0
M  V30 1812 C     -29.0230    52.2480   -24.3390 0 CHG=0 CFG=0
M  V30 1813 O     -30.2050    52.1280   -24.6600 0 CHG=0 CFG=0
M  V30 1814 N     -28.1030    52.6250   -25.1930 0 CHG=0 CFG=0
M  V30 1815 H     -26.2400    50.2140   -21.4630 0 CHG=0 CFG=0
M  V30 1816 H     -28.6970    50.8200   -20.4520 0 CHG=0 CFG=0
M  V30 1817 H     -28.0690    50.0420   -23.1130 0 CHG=0 CFG=0
M  V30 1818 H     -29.5500    50.2690   -22.5870 0 CHG=0 CFG=0
M  V30 1819 H     -29.1030    52.5260   -22.3030 0 CHG=0 CFG=0
M  V30 1820 H     -27.6220    52.2980   -22.8340 0 CHG=0 CFG=0
M  V30 1821 H     -27.2890    52.7210   -24.9330 0 CHG=0 CFG=0
M  V30 1822 H     -28.3130    52.7760   -26.0130 0 CHG=0 CFG=0
M  V30 1823 N     -27.2470    48.1230   -20.4620 0 CHG=0 CFG=0
M  V30 1824 C     -27.3010    46.7040   -20.1710 0 CHG=0 CFG=2
M  V30 1825 C     -27.1380    46.4660   -18.6390 0 CHG=0 CFG=0
M  V30 1826 O     -26.3530    47.1260   -17.9540 0 CHG=0 CFG=0
M  V30 1827 C     -26.2100    46.0000   -20.9750 0 CHG=0 CFG=0
M  V30 1828 C     -26.2990    46.0440   -22.5080 0 CHG=0 CFG=0
M  V30 1829 C     -25.2180    45.1630   -23.1420 0 CHG=0 CFG=0
M  V30 1830 C     -27.6450    45.5920   -23.0190 0 CHG=0 CFG=0
M  V30 1831 H     -26.4550    48.4580   -20.4490 0 CHG=0 CFG=0
M  V30 1832 H     -28.1700    46.3460   -20.4490 0 CHG=0 CFG=0
M  V30 1833 H     -25.3580    46.3950   -20.7300 0 CHG=0 CFG=0
M  V30 1834 H     -26.2090    45.0640   -20.7200 0 CHG=0 CFG=0
M  V30 1835 H     -26.1560    46.9560   -22.8060 0 CHG=0 CFG=0
M  V30 1836 H     -25.2980    45.2110   -24.0980 0 CHG=0 CFG=0
M  V30 1837 H     -24.3550    45.4820   -22.8690 0 CHG=0 CFG=0
M  V30 1838 H     -25.3410    44.2580   -22.8470 0 CHG=0 CFG=0
M  V30 1839 H     -27.6470    45.6380   -23.9780 0 CHG=0 CFG=0
M  V30 1840 H     -27.7990    44.6880   -22.7340 0 CHG=0 CFG=0
M  V30 1841 H     -28.3250    46.1680   -22.6610 0 CHG=0 CFG=0
M  V30 1842 N     -27.9050    45.5510   -18.0820 0 CHG=0 CFG=0
M  V30 1843 C     -27.6690    45.1840   -16.6950 0 CHG=0 CFG=2
M  V30 1844 C     -26.4850    44.2650   -16.7190 0 CHG=0 CFG=0
M  V30 1845 O     -26.6490    43.0510   -16.8600 0 CHG=0 CFG=0
M  V30 1846 C     -28.8770    44.4960   -16.0960 0 CHG=0 CFG=0
M  V30 1847 C     -29.9930    45.4600   -15.7200 0 CHG=0 CFG=0
M  V30 1848 C     -31.2830    44.7440   -15.3550 0 CHG=0 CFG=0
M  V30 1849 O     -31.6850    44.8040   -14.1740 0 CHG=0 CFG=0
M  V30 1850 O     -31.9030    44.1240   -16.2460 0 CHG=0 CFG=0
M  V30 1851 H     -28.5510    45.1360   -18.4680 0 CHG=0 CFG=0
M  V30 1852 H     -27.4530    45.9780   -16.1640 0 CHG=0 CFG=0
M  V30 1853 H     -29.2320    43.8660   -16.7430 0 CHG=0 CFG=0
M  V30 1854 H     -28.6050    44.0260   -15.2920 0 CHG=0 CFG=0
M  V30 1855 H     -29.7140    45.9840   -14.9530 0 CHG=0 CFG=0
M  V30 1856 H     -30.1760    46.0430   -16.4730 0 CHG=0 CFG=0
M  V30 1857 N     -25.2980    44.8740   -16.6330 0 CHG=0 CFG=0
M  V30 1858 C     -24.0370    44.1660   -16.7200 0 CHG=0 CFG=2
M  V30 1859 C     -23.0540    44.7170   -15.6710 0 CHG=0 CFG=0
M  V30 1860 O     -23.0480    45.9060   -15.4000 0 CHG=0 CFG=0
M  V30 1861 C     -23.4390    44.3180   -18.1380 0 CHG=0 CFG=0
M  V30 1862 C     -23.2480    45.7830   -18.4580 0 CHG=0 CFG=0
M  V30 1863 C     -22.1070    43.5900   -18.2770 0 CHG=0 CFG=0
M  V30 1864 H     -25.2050    45.7210   -16.5210 0 CHG=0 CFG=0
M  V30 1865 H     -24.1820    43.2130   -16.5430 0 CHG=0 CFG=0
M  V30 1866 H     -24.0630    43.9410   -18.7930 0 CHG=0 CFG=0
M  V30 1867 H     -22.8770    45.8640   -19.3400 0 CHG=0 CFG=0
M  V30 1868 H     -24.1000    46.2240   -18.4190 0 CHG=0 CFG=0
M  V30 1869 H     -22.6500    46.1680   -17.8140 0 CHG=0 CFG=0
M  V30 1870 H     -21.7760    43.7120   -19.1700 0 CHG=0 CFG=0
M  V30 1871 H     -21.4840    43.9550   -17.6440 0 CHG=0 CFG=0
M  V30 1872 H     -22.2420    42.6560   -18.1020 0 CHG=0 CFG=0
M  V30 1873 N     -22.2460    43.8370   -15.0750 0 CHG=0 CFG=0
M  V30 1874 C     -21.2120    44.2210   -14.1060 0 CHG=0 CFG=2
M  V30 1875 C     -19.8500    43.6430   -14.5200 0 CHG=0 CFG=0
M  V30 1876 O     -19.7460    42.5690   -15.1070 0 CHG=0 CFG=0
M  V30 1877 C     -21.5230    43.6360   -12.7340 0 CHG=0 CFG=0
M  V30 1878 C     -22.8910    43.9390   -12.1420 0 CHG=0 CFG=0
M  V30 1879 C     -23.0670    43.1970   -10.7880 0 CHG=0 CFG=0
M  V30 1880 C     -24.5060    43.2720   -10.2460 0 CHG=0 CFG=0
M  V30 1881 N     -24.7880    42.2140    -9.2150 0 CHG=1 CFG=0
M  V30 1882 H     -22.2770    42.9890   -15.2190 0 CHG=0 CFG=0
M  V30 1883 H     -21.1480    45.1960   -14.0400 0 CHG=0 CFG=0
M  V30 1884 H     -21.4460    42.6710   -12.7940 0 CHG=0 CFG=0
M  V30 1885 H     -20.8610    43.9690   -12.1080 0 CHG=0 CFG=0
M  V30 1886 H     -22.9720    44.8930   -11.9840 0 CHG=0 CFG=0
M  V30 1887 H     -23.5820    43.6360   -12.7520 0 CHG=0 CFG=0
M  V30 1888 H     -22.8410    42.2620   -10.9080 0 CHG=0 CFG=0
M  V30 1889 H     -22.4790    43.5990   -10.1290 0 CHG=0 CFG=0
M  V30 1890 H     -24.6450    44.1380    -9.8330 0 CHG=0 CFG=0
M  V30 1891 H     -25.1280    43.1490   -10.9800 0 CHG=0 CFG=0
M  V30 1892 H     -25.6270    42.2870    -8.9250 0 CHG=0 CFG=0
M  V30 1893 H     -24.6750    41.4050    -9.5700 0 CHG=0 CFG=0
M  V30 1894 H     -24.2350    42.3070    -8.5240 0 CHG=0 CFG=0
M  V30 1895 N     -18.7780    44.3200   -14.1840 0 CHG=0 CFG=0
M  V30 1896 C     -17.4860    43.7160   -14.4470 0 CHG=0 CFG=2
M  V30 1897 C     -16.8830    43.0840   -13.1980 0 CHG=0 CFG=0
M  V30 1898 O     -17.1550    43.5040   -12.0810 0 CHG=0 CFG=0
M  V30 1899 C     -16.5480    44.7490   -15.0280 0 CHG=0 CFG=0
M  V30 1900 C     -17.0220    45.2850   -16.3240 0 CHG=0 CFG=0
M  V30 1901 C     -16.9920    44.4860   -17.4600 0 CHG=0 CFG=0
M  V30 1902 C     -17.5240    46.5700   -16.4110 0 CHG=0 CFG=0
M  V30 1903 C     -17.4340    44.9710   -18.6500 0 CHG=0 CFG=0
M  V30 1904 C     -17.9640    47.0620   -17.5970 0 CHG=0 CFG=0
M  V30 1905 C     -17.9210    46.2640   -18.7210 0 CHG=0 CFG=0
M  V30 1906 H     -18.7620    45.0980   -13.8180 0 CHG=0 CFG=0
M  V30 1907 H     -17.6000    43.0070   -15.1140 0 CHG=0 CFG=0
M  V30 1908 H     -16.4700    45.4900   -14.4070 0 CHG=0 CFG=0
M  V30 1909 H     -15.6790    44.3420   -15.1710 0 CHG=0 CFG=0
M  V30 1910 H     -16.6600    43.6190   -17.4080 0 CHG=0 CFG=0
M  V30 1911 H     -17.5480    47.1070   -15.6520 0 CHG=0 CFG=0
M  V30 1912 H     -17.4070    44.4390   -19.4120 0 CHG=0 CFG=0
M  V30 1913 H     -18.2950    47.9290   -17.6510 0 CHG=0 CFG=0
M  V30 1914 H     -18.2250    46.5980   -19.5350 0 CHG=0 CFG=0
M  V30 1915 N     -16.0750    42.0610   -13.4140 0 CHG=0 CFG=0
M  V30 1916 C     -15.3840    41.4180   -12.3340 0 CHG=0 CFG=2
M  V30 1917 C     -14.0580    42.0640   -12.0560 0 CHG=0 CFG=0
M  V30 1918 O     -13.6710    42.1460   -10.9290 0 CHG=0 CFG=0
M  V30 1919 C     -15.2130    39.9460   -12.6310 0 CHG=0 CFG=0
M  V30 1920 C     -16.5190    39.2110   -12.5510 0 CHG=0 CFG=0
M  V30 1921 O     -17.4200    39.6260   -11.8230 0 CHG=0 CFG=0
M  V30 1922 N     -16.6540    38.1320   -13.3240 0 CHG=0 CFG=0
M  V30 1923 H     -15.9130    41.7220   -14.1870 0 CHG=0 CFG=0
M  V30 1924 H     -15.9290    41.4960   -11.5230 0 CHG=0 CFG=0
M  V30 1925 H     -14.8600    39.8390   -13.5280 0 CHG=0 CFG=0
M  V30 1926 H     -14.6060    39.5570   -11.9820 0 CHG=0 CFG=0
M  V30 1927 H     -16.0090    37.8870   -13.8370 0 CHG=0 CFG=0
M  V30 1928 H     -17.3870    37.6820   -13.3090 0 CHG=0 CFG=0
M  V30 1929 N     -13.3460    42.5350   -13.0670 0 CHG=0 CFG=0
M  V30 1930 C     -12.0970    43.2200   -12.7950 0 CHG=0 CFG=2
M  V30 1931 C     -12.4500    44.5090   -12.0930 0 CHG=0 CFG=0
M  V30 1932 O     -13.1700    45.3190   -12.6540 0 CHG=0 CFG=0
M  V30 1933 C     -11.3370    43.5130   -14.0510 0 CHG=0 CFG=0
M  V30 1934 H     -13.5570    42.4740   -13.8990 0 CHG=0 CFG=0
M  V30 1935 H     -11.5370    42.6760   -12.2020 0 CHG=0 CFG=0
M  V30 1936 H     -10.5200    43.9650   -13.8230 0 CHG=0 CFG=0
M  V30 1937 H     -11.1400    42.6860   -14.4970 0 CHG=0 CFG=0
M  V30 1938 H     -11.8740    44.0720   -14.6170 0 CHG=0 CFG=0
M  V30 1939 N     -11.9670    44.6850   -10.8450 0 CHG=0 CFG=0
M  V30 1940 C     -12.1300    45.9420   -10.1090 0 CHG=0 CFG=2
M  V30 1941 C     -11.7970    47.1730   -10.9510 0 CHG=0 CFG=0
M  V30 1942 O     -12.5850    48.1190   -10.8620 0 CHG=0 CFG=0
M  V30 1943 C     -11.1310    45.8010    -8.9430 0 CHG=0 CFG=0
M  V30 1944 C     -11.0330    44.3250    -8.7140 0 CHG=0 CFG=0
M  V30 1945 C     -11.3040    43.6420   -10.0350 0 CHG=0 CFG=0
M  V30 1946 H     -13.0400    46.0200    -9.7550 0 CHG=0 CFG=0
M  V30 1947 H     -10.2710    46.1690    -9.2000 0 CHG=0 CFG=0
M  V30 1948 H     -11.4780    46.2500    -8.1560 0 CHG=0 CFG=0
M  V30 1949 H     -10.1410    44.1090    -8.4010 0 CHG=0 CFG=0
M  V30 1950 H     -11.6940    44.0590    -8.0560 0 CHG=0 CFG=0
M  V30 1951 H     -10.4700    43.3710   -10.4520 0 CHG=0 CFG=0
M  V30 1952 H     -11.8980    42.8860    -9.9080 0 CHG=0 CFG=0
M  V30 1953 N     -10.6880    47.1870   -11.7180 0 CHG=0 CFG=0
M  V30 1954 C     -10.3720    48.3540   -12.5590 0 CHG=0 CFG=2
M  V30 1955 C     -11.5500    48.6880   -13.4660 0 CHG=0 CFG=0
M  V30 1956 O     -11.9070    49.8560   -13.5720 0 CHG=0 CFG=0
M  V30 1957 C      -9.1150    48.1610   -13.3860 0 CHG=0 CFG=0
M  V30 1958 H     -10.1160    46.5460   -11.7660 0 CHG=0 CFG=0
M  V30 1959 H     -10.2230    49.1270   -11.9740 0 CHG=0 CFG=0
M  V30 1960 H      -8.9620    48.9500   -13.9110 0 CHG=0 CFG=0
M  V30 1961 H      -8.3730    48.0100   -12.7960 0 CHG=0 CFG=0
M  V30 1962 H      -9.2340    47.4020   -13.9630 0 CHG=0 CFG=0
M  V30 1963 N     -12.1680    47.6660   -14.0730 0 CHG=0 CFG=0
M  V30 1964 C     -13.3260    47.8800   -14.9550 0 CHG=0 CFG=2
M  V30 1965 C     -14.5560    48.3640   -14.2100 0 CHG=0 CFG=0
M  V30 1966 O     -15.1820    49.3250   -14.6660 0 CHG=0 CFG=0
M  V30 1967 C     -13.6800    46.6420   -15.8130 0 CHG=0 CFG=0
M  V30 1968 C     -12.7560    46.3970   -17.0250 0 CHG=0 CFG=0
M  V30 1969 C     -12.9920    45.0570   -17.6090 0 CHG=0 CFG=0
M  V30 1970 C     -12.9400    47.4330   -18.1270 0 CHG=0 CFG=0
M  V30 1971 H     -11.9380    46.8420   -13.9900 0 CHG=0 CFG=0
M  V30 1972 H     -13.0860    48.5920   -15.5830 0 CHG=0 CFG=0
M  V30 1973 H     -13.6370    45.8540   -15.2490 0 CHG=0 CFG=0
M  V30 1974 H     -14.5830    46.7510   -16.1510 0 CHG=0 CFG=0
M  V30 1975 H     -11.8330    46.4360   -16.7300 0 CHG=0 CFG=0
M  V30 1976 H     -12.4050    44.9350   -18.3580 0 CHG=0 CFG=0
M  V30 1977 H     -12.8150    44.3900   -16.9410 0 CHG=0 CFG=0
M  V30 1978 H     -13.9060    44.9980   -17.8960 0 CHG=0 CFG=0
M  V30 1979 H     -12.3420    47.2290   -18.8500 0 CHG=0 CFG=0
M  V30 1980 H     -13.8490    47.4030   -18.4350 0 CHG=0 CFG=0
M  V30 1981 H     -12.7420    48.3030   -17.7730 0 CHG=0 CFG=0
M  V30 1982 N     -14.8850    47.7220   -13.0830 0 CHG=0 CFG=0
M  V30 1983 C     -16.0940    48.0500   -12.3110 0 CHG=0 CFG=2
M  V30 1984 C     -16.0090    49.5340   -12.0140 0 CHG=0 CFG=0
M  V30 1985 O     -16.9590    50.2770   -12.2030 0 CHG=0 CFG=0
M  V30 1986 C     -16.1830    47.2880   -10.9510 0 CHG=0 CFG=0
M  V30 1987 C     -16.2730    45.7290   -10.9570 0 CHG=0 CFG=0
M  V30 1988 C     -15.9110    45.0190    -9.5510 0 CHG=0 CFG=0
M  V30 1989 O     -14.8230    45.1840    -9.0010 0 CHG=0 CFG=0
M  V30 1990 N     -16.8280    44.2170    -9.0360 0 CHG=0 CFG=0
M  V30 1991 H     -14.4200    47.0850   -12.7400 0 CHG=0 CFG=0
M  V30 1992 H     -16.8990    47.8690   -12.8400 0 CHG=0 CFG=0
M  V30 1993 H     -15.3960    47.5180   -10.4330 0 CHG=0 CFG=0
M  V30 1994 H     -16.9700    47.6090   -10.4840 0 CHG=0 CFG=0
M  V30 1995 H     -17.1800    45.4740   -11.1900 0 CHG=0 CFG=0
M  V30 1996 H     -15.6580    45.3880   -11.6250 0 CHG=0 CFG=0
M  V30 1997 H     -17.5740    44.0960    -9.4480 0 CHG=0 CFG=0
M  V30 1998 H     -16.6800    43.8170    -8.2900 0 CHG=0 CFG=0
M  V30 1999 N     -14.8330    49.9490   -11.5550 0 CHG=0 CFG=0
M  V30 2000 C     -14.6500    51.2770   -11.0110 0 CHG=0 CFG=2
M  V30 2001 C     -14.6970    52.2620   -12.1220 0 CHG=0 CFG=0
M  V30 2002 O     -15.4320    53.2240   -12.0600 0 CHG=0 CFG=0
M  V30 2003 C     -13.3010    51.3950   -10.2620 0 CHG=0 CFG=0
M  V30 2004 C     -13.3560    50.7970    -8.8470 0 CHG=0 CFG=0
M  V30 2005 C     -11.9940    50.7500    -8.0900 0 CHG=0 CFG=0
M  V30 2006 O     -11.0110    51.4850    -8.4500 0 CHG=0 CFG=0
M  V30 2007 O     -11.9440    49.9570    -7.1060 0 CHG=0 CFG=0
M  V30 2008 H     -14.1190    49.4690   -11.5500 0 CHG=0 CFG=0
M  V30 2009 H     -15.3740    51.4780   -10.3830 0 CHG=0 CFG=0
M  V30 2010 H     -12.6190    50.9210   -10.7630 0 CHG=0 CFG=0
M  V30 2011 H     -13.0650    52.3320   -10.1830 0 CHG=0 CFG=0
M  V30 2012 H     -13.9680    51.3260    -8.3130 0 CHG=0 CFG=0
M  V30 2013 H     -13.6850    49.8870    -8.9110 0 CHG=0 CFG=0
M  V30 2014 N     -13.8910    52.0080   -13.1410 0 CHG=0 CFG=0
M  V30 2015 C     -13.7660    52.9020   -14.2800 0 CHG=0 CFG=2
M  V30 2016 C     -15.1230    53.1160   -14.9250 0 CHG=0 CFG=0
M  V30 2017 O     -15.4350    54.2060   -15.4140 0 CHG=0 CFG=0
M  V30 2018 C     -12.7850    52.3230   -15.2950 0 CHG=0 CFG=0
M  V30 2019 H     -13.3940    51.3080   -13.1980 0 CHG=0 CFG=0
M  V30 2020 H     -13.4250    53.7700   -13.9790 0 CHG=0 CFG=0
M  V30 2021 H     -12.7140    52.9250   -16.0400 0 CHG=0 CFG=0
M  V30 2022 H     -11.9270    52.2180   -14.8760 0 CHG=0 CFG=0
M  V30 2023 H     -13.1110    51.4700   -15.5930 0 CHG=0 CFG=0
M  V30 2024 N     -15.9220    52.0580   -14.9200 0 CHG=0 CFG=0
M  V30 2025 C     -17.2300    52.0940   -15.5200 0 CHG=0 CFG=2
M  V30 2026 C     -18.1940    52.9790   -14.7470 0 CHG=0 CFG=0
M  V30 2027 O     -18.9190    53.7920   -15.3360 0 CHG=0 CFG=0
M  V30 2028 C     -17.8020    50.6870   -15.5710 0 CHG=0 CFG=0
M  V30 2029 C     -19.1310    50.6020   -16.2810 0 CHG=0 CFG=0
M  V30 2030 C     -19.3880    51.3770   -17.4150 0 CHG=0 CFG=0
M  V30 2031 C     -20.1200    49.7340   -15.8390 0 CHG=0 CFG=0
M  V30 2032 C     -20.5950    51.2970   -18.0670 0 CHG=0 CFG=0
M  V30 2033 C     -21.3370    49.6410   -16.4900 0 CHG=0 CFG=0
M  V30 2034 C     -21.5710    50.4240   -17.6070 0 CHG=0 CFG=0
M  V30 2035 O     -22.7850    50.3340   -18.2710 0 CHG=0 CFG=0
M  V30 2036 H     -15.7200    51.3000   -14.5680 0 CHG=0 CFG=0
M  V30 2037 H     -17.1610    52.4360   -16.4360 0 CHG=0 CFG=0
M  V30 2038 H     -17.1770    50.1120   -16.0390 0 CHG=0 CFG=0
M  V30 2039 H     -17.9280    50.3670   -14.6640 0 CHG=0 CFG=0
M  V30 2040 H     -18.7360    51.9630   -17.7270 0 CHG=0 CFG=0
M  V30 2041 H     -19.9620    49.2070   -15.0890 0 CHG=0 CFG=0
M  V30 2042 H     -20.7540    51.8190   -18.8200 0 CHG=0 CFG=0
M  V30 2043 H     -21.9910    49.0560   -16.1810 0 CHG=0 CFG=0
M  V30 2044 H     -23.3980    50.5330   -17.7630 0 CHG=0 CFG=0
M  V30 2045 N     -18.2450    52.7720   -13.4370 0 CHG=0 CFG=0
M  V30 2046 C     -19.0270    53.6250   -12.5540 0 CHG=0 CFG=2
M  V30 2047 C     -18.7120    55.1020   -12.8500 0 CHG=0 CFG=0
M  V30 2048 O     -19.6160    55.9160   -13.0190 0 CHG=0 CFG=0
M  V30 2049 C     -18.7700    53.2580   -11.0660 0 CHG=0 CFG=0
M  V30 2050 C     -19.1280    54.3660   -10.0920 0 CHG=0 CFG=0
M  V30 2051 C     -20.3600    54.3850    -9.4300 0 CHG=0 CFG=0
M  V30 2052 C     -18.2380    55.4120    -9.8540 0 CHG=0 CFG=0
M  V30 2053 C     -20.6950    55.4240    -8.5540 0 CHG=0 CFG=0
M  V30 2054 C     -18.5540    56.4490    -8.9760 0 CHG=0 CFG=0
M  V30 2055 C     -19.7790    56.4530    -8.3350 0 CHG=0 CFG=0
M  V30 2056 O     -20.0620    57.4930    -7.4760 0 CHG=0 CFG=0
M  V30 2057 H     -17.8310    52.1360   -13.0310 0 CHG=0 CFG=0
M  V30 2058 H     -19.9790    53.4800   -12.7370 0 CHG=0 CFG=0
M  V30 2059 H     -19.3030    52.4800   -10.8390 0 CHG=0 CFG=0
M  V30 2060 H     -17.8280    53.0560   -10.9520 0 CHG=0 CFG=0
M  V30 2061 H     -20.9710    53.7010    -9.5830 0 CHG=0 CFG=0
M  V30 2062 H     -17.4150    55.4170   -10.2880 0 CHG=0 CFG=0
M  V30 2063 H     -21.5160    55.4250    -8.1170 0 CHG=0 CFG=0
M  V30 2064 H     -17.9480    57.1390    -8.8290 0 CHG=0 CFG=0
M  V30 2065 H     -20.0420    58.2050    -7.8820 0 CHG=0 CFG=0
M  V30 2066 N     -17.4380    55.4510   -12.9540 0 CHG=0 CFG=0
M  V30 2067 C     -17.0840    56.8290   -13.2610 0 CHG=0 CFG=2
M  V30 2068 C     -17.4960    57.2440   -14.6710 0 CHG=0 CFG=0
M  V30 2069 O     -17.8440    58.4100   -14.9040 0 CHG=0 CFG=0
M  V30 2070 C     -15.5930    57.0410   -13.0910 0 CHG=0 CFG=0
M  V30 2071 C     -15.1290    56.9610   -11.6580 0 CHG=0 CFG=0
M  V30 2072 C     -13.5850    56.8930   -11.5470 0 CHG=0 CFG=0
M  V30 2073 N     -12.8800    58.0390   -12.1420 0 CHG=0 CFG=0
M  V30 2074 C     -11.5530    58.1210   -12.2720 0 CHG=0 CFG=0
M  V30 2075 N     -10.7700    57.1250   -11.8510 0 CHG=0 CFG=0
M  V30 2076 N     -10.9920    59.2000   -12.8180 0 CHG=0 CFG=0
M  V30 2077 H     -16.7700    54.9200   -12.8530 0 CHG=0 CFG=0
M  V30 2078 H     -17.5440    57.4210   -12.6290 0 CHG=0 CFG=0
M  V30 2079 H     -15.1220    56.3590   -13.5950 0 CHG=0 CFG=0
M  V30 2080 H     -15.3610    57.9200   -13.4300 0 CHG=0 CFG=0
M  V30 2081 H     -15.4310    57.7490   -11.1810 0 CHG=0 CFG=0
M  V30 2082 H     -15.4970    56.1620   -11.2490 0 CHG=0 CFG=0
M  V30 2083 H     -13.3420    56.8530   -10.6080 0 CHG=0 CFG=0
M  V30 2084 H     -13.2760    56.0910   -11.9980 0 CHG=0 CFG=0
M  V30 2085 H     -13.3540    58.7000   -12.4240 0 CHG=0 CFG=0
M  V30 2086 H     -11.1190    56.4240   -11.4950 0 CHG=0 CFG=0
M  V30 2087 H      -9.9160    57.1830   -11.9370 0 CHG=0 CFG=0
M  V30 2088 H     -11.4860    59.8480   -13.0940 0 CHG=0 CFG=0
M  V30 2089 H     -10.1380    59.2450   -12.9000 0 CHG=0 CFG=0
M  V30 2090 N     -17.4510    56.3130   -15.6240 0 CHG=0 CFG=0
M  V30 2091 C     -17.8720    56.6300   -16.9810 0 CHG=0 CFG=2
M  V30 2092 C     -19.3810    56.9540   -16.9780 0 CHG=0 CFG=0
M  V30 2093 O     -19.8520    57.8920   -17.6160 0 CHG=0 CFG=0
M  V30 2094 C     -17.5430    55.4680   -17.9360 0 CHG=0 CFG=0
M  V30 2095 H     -17.1840    55.5030   -15.5110 0 CHG=0 CFG=0
M  V30 2096 H     -17.3900    57.4250   -17.2900 0 CHG=0 CFG=0
M  V30 2097 H     -17.8300    55.7010   -18.8220 0 CHG=0 CFG=0
M  V30 2098 H     -16.5950    55.3160   -17.9280 0 CHG=0 CFG=0
M  V30 2099 H     -18.0040    54.6800   -17.6390 0 CHG=0 CFG=0
M  V30 2100 N     -20.1390    56.1700   -16.2370 0 CHG=0 CFG=0
M  V30 2101 C     -21.5650    56.4100   -16.1300 0 CHG=0 CFG=2
M  V30 2102 C     -21.8460    57.8100   -15.6020 0 CHG=0 CFG=0
M  V30 2103 O     -22.8760    58.3710   -15.8800 0 CHG=0 CFG=0
M  V30 2104 C     -22.1970    55.3420   -15.2550 0 CHG=0 CFG=0
M  V30 2105 C     -22.3300    54.0430   -16.0160 0 CHG=0 CFG=0
M  V30 2106 C     -22.4010    52.8320   -15.1250 0 CHG=0 CFG=0
M  V30 2107 N     -23.6600    52.6970   -14.3940 0 CHG=0 CFG=0
M  V30 2108 C     -23.8070    51.9300   -13.3100 0 CHG=0 CFG=0
M  V30 2109 N     -22.7690    51.2380   -12.8200 0 CHG=0 CFG=0
M  V30 2110 N     -24.9860    51.8570   -12.7030 0 CHG=0 CFG=0
M  V30 2111 H     -19.8560    55.4940   -15.7870 0 CHG=0 CFG=0
M  V30 2112 H     -21.9640    56.3410   -17.0230 0 CHG=0 CFG=0
M  V30 2113 H     -21.6370    55.1880   -14.4790 0 CHG=0 CFG=0
M  V30 2114 H     -23.0820    55.6310   -14.9830 0 CHG=0 CFG=0
M  V30 2115 H     -23.1420    54.0710   -16.5450 0 CHG=0 CFG=0
M  V30 2116 H     -21.5610    53.9400   -16.5970 0 CHG=0 CFG=0
M  V30 2117 H     -22.2900    52.0380   -15.6720 0 CHG=0 CFG=0
M  V30 2118 H     -21.6850    52.8830   -14.4730 0 CHG=0 CFG=0
M  V30 2119 H     -24.3060    53.2240   -14.6050 0 CHG=0 CFG=0
M  V30 2120 H     -22.0030    51.2800   -13.2080 0 CHG=0 CFG=0
M  V30 2121 H     -22.8710    50.7480   -12.1200 0 CHG=0 CFG=0
M  V30 2122 H     -25.6560    52.3010   -13.0100 0 CHG=0 CFG=0
M  V30 2123 H     -25.0800    51.3670   -12.0020 0 CHG=0 CFG=0
M  V30 2124 N     -20.9120    58.3960   -14.8650 0 CHG=0 CFG=0
M  V30 2125 C     -21.1140    59.7560   -14.3610 0 CHG=0 CFG=2
M  V30 2126 C     -20.4290    60.7450   -15.2670 0 CHG=0 CFG=0
M  V30 2127 O     -20.2800    61.9090   -14.9280 0 CHG=0 CFG=0
M  V30 2128 C     -20.5790    59.8920   -12.9410 0 CHG=0 CFG=0
M  V30 2129 H     -20.1620    58.0390   -14.6440 0 CHG=0 CFG=0
M  V30 2130 H     -22.0720    59.9600   -14.3500 0 CHG=0 CFG=0
M  V30 2131 H     -20.7250    60.7910   -12.6370 0 CHG=0 CFG=0
M  V30 2132 H     -21.0440    59.2740   -12.3720 0 CHG=0 CFG=0
M  V30 2133 H     -19.6400    59.6940   -12.9410 0 CHG=0 CFG=0
M  V30 2134 N     -19.9670    60.2710   -16.4130 0 CHG=0 CFG=0
M  V30 2135 C     -19.4190    61.1600   -17.4220 0 CHG=0 CFG=0
M  V30 2136 C     -17.9280    61.3580   -17.3170 0 CHG=0 CFG=0
M  V30 2137 O     -17.3690    62.2130   -17.9850 0 CHG=0 CFG=0
M  V30 2138 H     -19.9590    59.4390   -16.6310 0 CHG=0 CFG=0
M  V30 2139 H     -19.6150    60.8020   -18.3020 0 CHG=0 CFG=0
M  V30 2140 H     -19.8450    62.0280   -17.3460 0 CHG=0 CFG=0
M  V30 2141 N     -17.2620    60.5800   -16.4760 0 CHG=0 CFG=0
M  V30 2142 C     -15.8060    60.6600   -16.4440 0 CHG=0 CFG=2
M  V30 2143 C     -15.2040    59.4020   -17.0490 0 CHG=0 CFG=0
M  V30 2144 O     -14.9530    58.4340   -16.3250 0 CHG=0 CFG=0
M  V30 2145 C     -15.3030    60.8370   -15.0290 0 CHG=0 CFG=0
M  V30 2146 C     -13.8410    61.1100   -15.0040 0 CHG=0 CFG=0
M  V30 2147 O     -13.3020    61.3070   -16.1180 0 CHG=0 CFG=0
M  V30 2148 O     -13.2420    61.1290   -13.9080 0 CHG=0 CFG=0
M  V30 2149 H     -17.6120    60.0150   -15.9310 0 CHG=0 CFG=0
M  V30 2150 H     -15.5110    61.4290   -16.9750 0 CHG=0 CFG=0
M  V30 2151 H     -15.7600    61.5880   -14.6180 0 CHG=0 CFG=0
M  V30 2152 H     -15.4700    60.0250   -14.5250 0 CHG=0 CFG=0
M  V30 2153 N     -14.9930    59.4000   -18.3680 0 CHG=0 CFG=0
M  V30 2154 C     -14.8520    58.1340   -19.0780 0 CHG=0 CFG=2
M  V30 2155 C     -13.4660    57.8060   -19.6230 0 CHG=0 CFG=0
M  V30 2156 O     -13.2700    56.6890   -20.1450 0 CHG=0 CFG=0
M  V30 2157 C     -15.8760    58.0300   -20.1850 0 CHG=0 CFG=0
M  V30 2158 H     -14.9290    60.1020   -18.8610 0 CHG=0 CFG=0
M  V30 2159 H     -15.0660    57.4220   -18.4390 0 CHG=0 CFG=0
M  V30 2160 H     -15.7640    57.1900   -20.6370 0 CHG=0 CFG=0
M  V30 2161 H     -16.7550    58.0810   -19.8020 0 CHG=0 CFG=0
M  V30 2162 H     -15.7440    58.7540   -20.8010 0 CHG=0 CFG=0
M  V30 2163 N     -12.5080    58.7150   -19.4800 0 CHG=0 CFG=0
M  V30 2164 C     -11.1600    58.4960   -20.0360 0 CHG=0 CFG=2
M  V30 2165 C     -10.4690    57.1960   -19.6060 0 CHG=0 CFG=0
M  V30 2166 O      -9.9900    56.4410   -20.4600 0 CHG=0 CFG=0
M  V30 2167 C     -10.2680    59.6560   -19.7530 0 CHG=0 CFG=0
M  V30 2168 H     -12.6030    59.4650   -19.0700 0 CHG=0 CFG=0
M  V30 2169 H     -11.2520    58.4490   -21.0100 0 CHG=0 CFG=0
M  V30 2170 H      -9.4010    59.4810   -20.1270 0 CHG=0 CFG=0
M  V30 2171 H     -10.6450    60.4440   -20.1520 0 CHG=0 CFG=0
M  V30 2172 H     -10.1980    59.7710   -18.8030 0 CHG=0 CFG=0
M  V30 2173 N     -10.4150    56.9360   -18.3060 0 CHG=0 CFG=0
M  V30 2174 C      -9.8360    55.6910   -17.8000 0 CHG=0 CFG=2
M  V30 2175 C     -10.5310    54.5100   -18.4150 0 CHG=0 CFG=0
M  V30 2176 O      -9.9000    53.5390   -18.8040 0 CHG=0 CFG=0
M  V30 2177 C      -9.9300    55.5670   -16.2590 0 CHG=0 CFG=0
M  V30 2178 C      -9.1240    56.6420   -15.5250 0 CHG=0 CFG=0
M  V30 2179 O      -9.4660    57.8370   -15.5430 0 CHG=0 CFG=0
M  V30 2180 N      -8.0610    56.2200   -14.8660 0 CHG=0 CFG=0
M  V30 2181 H     -10.7070    57.4630   -17.6930 0 CHG=0 CFG=0
M  V30 2182 H      -8.8900    55.6530   -18.0520 0 CHG=0 CFG=0
M  V30 2183 H     -10.8580    55.6530   -15.9920 0 CHG=0 CFG=0
M  V30 2184 H      -9.5870    54.7000   -15.9920 0 CHG=0 CFG=0
M  V30 2185 H      -7.8580    55.3840   -14.8680 0 CHG=0 CFG=0
M  V30 2186 H      -7.5720    56.7800   -14.4350 0 CHG=0 CFG=0
M  V30 2187 N     -11.8430    54.5740   -18.4710 0 CHG=0 CFG=0
M  V30 2188 C     -12.6140    53.4440   -18.9120 0 CHG=0 CFG=2
M  V30 2189 C     -12.3020    53.2270   -20.3950 0 CHG=0 CFG=0
M  V30 2190 O     -12.0900    52.0790   -20.8440 0 CHG=0 CFG=0
M  V30 2191 C     -14.0890    53.6960   -18.6770 0 CHG=0 CFG=0
M  V30 2192 C     -14.9560    52.5180   -18.9770 0 CHG=0 CFG=0
M  V30 2193 C     -14.8640    51.3690   -18.2290 0 CHG=0 CFG=0
M  V30 2194 C     -15.8840    52.5620   -20.0190 0 CHG=0 CFG=0
M  V30 2195 C     -15.6770    50.2660   -18.5050 0 CHG=0 CFG=0
M  V30 2196 C     -16.6960    51.4750   -20.2790 0 CHG=0 CFG=0
M  V30 2197 C     -16.5840    50.3260   -19.5140 0 CHG=0 CFG=0
M  V30 2198 H     -12.3110    55.2640   -18.2590 0 CHG=0 CFG=0
M  V30 2199 H     -12.3460    52.6450   -18.4120 0 CHG=0 CFG=0
M  V30 2200 H     -14.2210    53.9330   -17.7460 0 CHG=0 CFG=0
M  V30 2201 H     -14.3760    54.4280   -19.2460 0 CHG=0 CFG=0
M  V30 2202 H     -14.2490    51.3230   -17.5330 0 CHG=0 CFG=0
M  V30 2203 H     -15.9670    53.3340   -20.5310 0 CHG=0 CFG=0
M  V30 2204 H     -15.6050    49.4950   -17.9900 0 CHG=0 CFG=0
M  V30 2205 H     -17.3110    51.5110   -20.9750 0 CHG=0 CFG=0
M  V30 2206 H     -17.1230    49.5910   -19.6980 0 CHG=0 CFG=0
M  V30 2207 N     -12.2190    54.3130   -21.1600 0 CHG=0 CFG=0
M  V30 2208 C     -11.9380    54.1140   -22.5660 0 CHG=0 CFG=2
M  V30 2209 C     -10.5500    53.5040   -22.7260 0 CHG=0 CFG=0
M  V30 2210 O     -10.3630    52.5650   -23.5090 0 CHG=0 CFG=0
M  V30 2211 C     -12.0770    55.3980   -23.3700 0 CHG=0 CFG=0
M  V30 2212 S     -13.7720    55.8870   -23.4710 0 CHG=0 CFG=0
M  V30 2213 H     -12.3170    55.1280   -20.9030 0 CHG=0 CFG=0
M  V30 2214 H     -12.5850    53.4720   -22.9240 0 CHG=0 CFG=0
M  V30 2215 H     -11.5780    56.1070   -22.9350 0 CHG=0 CFG=0
M  V30 2216 H     -11.7450    55.2530   -24.2700 0 CHG=0 CFG=0
M  V30 2217 H     -13.8490    56.9000   -24.1100 0 CHG=0 CFG=0
M  V30 2218 N      -9.5840    54.0230   -21.9850 0 CHG=0 CFG=0
M  V30 2219 C      -8.2260    53.5300   -22.0670 0 CHG=0 CFG=2
M  V30 2220 C      -8.1470    52.0940   -21.5590 0 CHG=0 CFG=0
M  V30 2221 O      -7.2430    51.3590   -21.9100 0 CHG=0 CFG=0
M  V30 2222 C      -7.3030    54.4240   -21.2760 0 CHG=0 CFG=0
M  V30 2223 H      -9.6920    54.6650   -21.4230 0 CHG=0 CFG=0
M  V30 2224 H      -7.9350    53.5400   -23.0030 0 CHG=0 CFG=0
M  V30 2225 H      -6.4070    54.0840   -21.3410 0 CHG=0 CFG=0
M  V30 2226 H      -7.3430    55.3120   -21.6380 0 CHG=0 CFG=0
M  V30 2227 H      -7.5850    54.4300   -20.3590 0 CHG=0 CFG=0
M  V30 2228 N      -9.0810    51.6650   -20.7380 0 CHG=0 CFG=0
M  V30 2229 C      -9.0130    50.2790   -20.2930 0 CHG=0 CFG=2
M  V30 2230 C      -9.5320    49.3790   -21.4280 0 CHG=0 CFG=0
M  V30 2231 O      -8.9530    48.3100   -21.7230 0 CHG=0 CFG=0
M  V30 2232 C      -9.8220    50.0570   -18.9990 0 CHG=0 CFG=0
M  V30 2233 C      -9.1500    50.4860   -17.6820 0 CHG=0 CFG=0
M  V30 2234 C     -10.1610    50.4680   -16.5270 0 CHG=0 CFG=0
M  V30 2235 C      -7.9250    49.5840   -17.3640 0 CHG=0 CFG=0
M  V30 2236 H      -9.7390    52.1260   -20.4320 0 CHG=0 CFG=0
M  V30 2237 H      -8.0790    50.0410   -20.1160 0 CHG=0 CFG=0
M  V30 2238 H     -10.6520    50.5530   -19.0720 0 CHG=0 CFG=0
M  V30 2239 H     -10.0200    49.1100   -18.9250 0 CHG=0 CFG=0
M  V30 2240 H      -8.8280    51.3960   -17.7790 0 CHG=0 CFG=0
M  V30 2241 H      -9.7170    50.7390   -15.7200 0 CHG=0 CFG=0
M  V30 2242 H     -10.8750    51.0770   -16.7280 0 CHG=0 CFG=0
M  V30 2243 H     -10.5060    49.5780   -16.4280 0 CHG=0 CFG=0
M  V30 2244 H      -7.5290    49.8750   -16.5400 0 CHG=0 CFG=0
M  V30 2245 H      -8.2200    48.6740   -17.2820 0 CHG=0 CFG=0
M  V30 2246 H      -7.2880    49.6590   -18.0780 0 CHG=0 CFG=0
M  V30 2247 N     -10.6130    49.8310   -22.0720 0 CHG=0 CFG=0
M  V30 2248 C     -11.1750    49.1100   -23.1990 0 CHG=0 CFG=2
M  V30 2249 C     -10.1030    48.8780   -24.2820 0 CHG=0 CFG=0
M  V30 2250 O      -9.8430    47.7480   -24.6880 0 CHG=0 CFG=0
M  V30 2251 C     -12.4070    49.7890   -23.7460 0 CHG=0 CFG=2
M  V30 2252 C     -13.5500    49.7410   -22.7190 0 CHG=0 CFG=0
M  V30 2253 C     -12.8950    49.0350   -24.9130 0 CHG=0 CFG=0
M  V30 2254 C     -14.8160    50.4920   -23.1520 0 CHG=0 CFG=0
M  V30 2255 H     -11.0350    50.5530   -21.8700 0 CHG=0 CFG=0
M  V30 2256 H     -11.4540    48.2260   -22.8810 0 CHG=0 CFG=0
M  V30 2257 H     -12.2100    50.7060   -23.9930 0 CHG=0 CFG=0
M  V30 2258 H     -13.7940    48.8150   -22.5680 0 CHG=0 CFG=0
M  V30 2259 H     -13.2400    50.1380   -21.8900 0 CHG=0 CFG=0
M  V30 2260 H     -13.6790    49.4680   -25.2590 0 CHG=0 CFG=0
M  V30 2261 H     -12.2080    49.0170   -25.5830 0 CHG=0 CFG=0
M  V30 2262 H     -13.1100    48.1400   -24.6390 0 CHG=0 CFG=0
M  V30 2263 H     -15.4770    50.4150   -22.4600 0 CHG=0 CFG=0
M  V30 2264 H     -14.5970    51.4160   -23.2940 0 CHG=0 CFG=0
M  V30 2265 H     -15.1460    50.1050   -23.9650 0 CHG=0 CFG=0
M  V30 2266 N      -9.4000    49.9280   -24.6430 0 CHG=0 CFG=0
M  V30 2267 C      -8.3410    49.8130   -25.6060 0 CHG=0 CFG=2
M  V30 2268 C      -7.3040    48.7790   -25.1800 0 CHG=0 CFG=0
M  V30 2269 O      -6.7800    48.0420   -26.0100 0 CHG=0 CFG=0
M  V30 2270 C      -7.6630    51.1760   -25.7790 0 CHG=0 CFG=0
M  V30 2271 C      -8.5130    52.2680   -26.4360 0 CHG=0 CFG=0
M  V30 2272 C      -7.8880    53.6230   -26.2620 0 CHG=0 CFG=0
M  V30 2273 C      -8.6400    51.9780   -27.8880 0 CHG=0 CFG=0
M  V30 2274 H      -9.5200    50.7240   -24.3410 0 CHG=0 CFG=0
M  V30 2275 H      -8.7140    49.5400   -26.4700 0 CHG=0 CFG=0
M  V30 2276 H      -7.4030    51.5010   -24.9020 0 CHG=0 CFG=0
M  V30 2277 H      -6.8720    51.0570   -26.3260 0 CHG=0 CFG=0
M  V30 2278 H      -9.3990    52.2780   -26.0400 0 CHG=0 CFG=0
M  V30 2279 H      -8.4450    54.2800   -26.6850 0 CHG=0 CFG=0
M  V30 2280 H      -7.8100    53.8130   -25.3240 0 CHG=0 CFG=0
M  V30 2281 H      -7.0180    53.6190   -26.6690 0 CHG=0 CFG=0
M  V30 2282 H      -9.1730    52.6640   -28.2980 0 CHG=0 CFG=0
M  V30 2283 H      -7.7650    51.9650   -28.2820 0 CHG=0 CFG=0
M  V30 2284 H      -9.0630    51.1230   -28.0010 0 CHG=0 CFG=0
M  V30 2285 N      -6.9590    48.7610   -23.8900 0 CHG=0 CFG=0
M  V30 2286 C      -5.8510    47.9490   -23.4230 0 CHG=0 CFG=2
M  V30 2287 C      -6.2750    46.4750   -23.3370 0 CHG=0 CFG=0
M  V30 2288 O      -5.4890    45.5610   -23.6230 0 CHG=0 CFG=0
M  V30 2289 C      -5.3490    48.4740   -22.0790 0 CHG=0 CFG=0
M  V30 2290 H      -7.3530    49.2120   -23.2720 0 CHG=0 CFG=0
M  V30 2291 H      -5.1150    48.0140   -24.0670 0 CHG=0 CFG=0
M  V30 2292 H      -4.6170    47.9270   -21.7840 0 CHG=0 CFG=0
M  V30 2293 H      -5.0560    49.3820   -22.1890 0 CHG=0 CFG=0
M  V30 2294 H      -6.0650    48.4350   -21.4420 0 CHG=0 CFG=0
M  V30 2295 N      -7.5190    46.2610   -22.9400 0 CHG=0 CFG=0
M  V30 2296 C      -8.0480    44.9200   -22.7370 0 CHG=0 CFG=2
M  V30 2297 C      -8.3140    44.2650   -24.0930 0 CHG=0 CFG=0
M  V30 2298 O      -8.4670    43.0560   -24.2060 0 CHG=0 CFG=0
M  V30 2299 C      -9.3670    44.9950   -21.9460 0 CHG=0 CFG=0
M  V30 2300 C      -9.2000    44.9770   -20.4430 0 CHG=0 CFG=0
M  V30 2301 C      -8.7040    43.8470   -19.8060 0 CHG=0 CFG=0
M  V30 2302 C      -9.5690    46.0710   -19.6580 0 CHG=0 CFG=0
M  V30 2303 C      -8.5430    43.8020   -18.4690 0 CHG=0 CFG=0
M  V30 2304 C      -9.4120    46.0420   -18.2910 0 CHG=0 CFG=0
M  V30 2305 C      -8.8850    44.8940   -17.7020 0 CHG=0 CFG=0
M  V30 2306 O      -8.7180    44.7950   -16.3470 0 CHG=0 CFG=0
M  V30 2307 H      -8.0870    46.8860   -22.7790 0 CHG=0 CFG=0
M  V30 2308 H      -7.4040    44.3760   -22.2380 0 CHG=0 CFG=0
M  V30 2309 H      -9.8230    45.8190   -22.1810 0 CHG=0 CFG=0
M  V30 2310 H      -9.9180    44.2360   -22.1900 0 CHG=0 CFG=0
M  V30 2311 H      -8.4560    43.1100   -20.3170 0 CHG=0 CFG=0
M  V30 2312 H      -9.9050    46.8360   -20.0660 0 CHG=0 CFG=0
M  V30 2313 H      -8.1990    43.0380   -18.0660 0 CHG=0 CFG=0
M  V30 2314 H      -9.6490    46.7760   -17.7710 0 CHG=0 CFG=0
M  V30 2315 H      -7.9300    44.6510   -16.1710 0 CHG=0 CFG=0
M  V30 2316 N      -8.4030    45.0700   -25.1390 0 CHG=0 CFG=0
M  V30 2317 C      -8.5840    44.4660   -26.4540 0 CHG=0 CFG=2
M  V30 2318 C      -7.4320    44.7650   -27.3810 0 CHG=0 CFG=0
M  V30 2319 O      -7.5930    44.7550   -28.5740 0 CHG=0 CFG=0
M  V30 2320 C      -9.9210    44.8570   -27.0960 0 CHG=0 CFG=0
M  V30 2321 O     -10.2480    46.2130   -26.9280 0 CHG=0 CFG=0
M  V30 2322 H      -8.3630    45.9290   -25.1230 0 CHG=0 CFG=0
M  V30 2323 H      -8.6030    43.4940   -26.3340 0 CHG=0 CFG=0
M  V30 2324 H      -9.8720    44.6680   -28.0460 0 CHG=0 CFG=0
M  V30 2325 H     -10.6230    44.3200   -26.6950 0 CHG=0 CFG=0
M  V30 2326 H      -9.6580    46.5930   -26.5030 0 CHG=0 CFG=0
M  V30 2327 N      -6.2580    45.0150   -26.8150 0 CHG=0 CFG=0
M  V30 2328 C      -5.0900    45.2240   -27.6370 0 CHG=0 CFG=2
M  V30 2329 C      -5.3240    46.1470   -28.8490 0 CHG=0 CFG=0
M  V30 2330 O      -4.9050    45.8540   -29.9690 0 CHG=0 CFG=0
M  V30 2331 C      -4.6140    43.8530   -28.0960 0 CHG=0 CFG=0
M  V30 2332 C      -4.0280    43.0460   -26.9540 0 CHG=0 CFG=0
M  V30 2333 O      -4.7080    42.2250   -26.3200 0 CHG=0 CFG=0
M  V30 2334 N      -2.7690    43.3030   -26.6630 0 CHG=0 CFG=0
M  V30 2335 H      -6.1180    45.0680   -25.9680 0 CHG=0 CFG=0
M  V30 2336 H      -4.3830    45.6220   -27.0880 0 CHG=0 CFG=0
M  V30 2337 H      -5.3660    43.3600   -28.4610 0 CHG=0 CFG=0
M  V30 2338 H      -3.9270    43.9640   -28.7720 0 CHG=0 CFG=0
M  V30 2339 H      -2.3360    43.8950   -27.1120 0 CHG=0 CFG=0
M  V30 2340 H      -2.3800    42.8770   -26.0250 0 CHG=0 CFG=0
M  V30 2341 N      -5.9690    47.2770   -28.6220 0 CHG=0 CFG=0
M  V30 2342 C      -5.9930    48.3190   -29.6240 0 CHG=0 CFG=2
M  V30 2343 C      -5.3560    49.6220   -29.1230 0 CHG=0 CFG=0
M  V30 2344 O      -5.3320    49.9100   -27.9140 0 CHG=0 CFG=0
M  V30 2345 C      -7.4290    48.6090   -30.0650 0 CHG=0 CFG=0
M  V30 2346 C      -8.2230    47.3730   -30.4170 0 CHG=0 CFG=0
M  V30 2347 C      -8.1270    47.0460   -31.8520 0 CHG=0 CFG=0
M  V30 2348 C      -8.6840    48.1470   -32.7040 0 CHG=0 CFG=0
M  V30 2349 N      -8.6810    47.7320   -34.1670 0 CHG=1 CFG=0
M  V30 2350 H      -6.3980    47.4630   -27.9010 0 CHG=0 CFG=0
M  V30 2351 H      -5.4900    48.0180   -30.4090 0 CHG=0 CFG=0
M  V30 2352 H      -7.8920    49.0630   -29.3430 0 CHG=0 CFG=0
M  V30 2353 H      -7.4060    49.1800   -30.8490 0 CHG=0 CFG=0
M  V30 2354 H      -7.8800    46.6200   -29.9110 0 CHG=0 CFG=0
M  V30 2355 H      -9.1570    47.5230   -30.2020 0 CHG=0 CFG=0
M  V30 2356 H      -7.1950    46.9200   -32.0900 0 CHG=0 CFG=0
M  V30 2357 H      -8.6320    46.2380   -32.0310 0 CHG=0 CFG=0
M  V30 2358 H      -9.5990    48.3310   -32.4380 0 CHG=0 CFG=0
M  V30 2359 H      -8.1360    48.9410   -32.6070 0 CHG=0 CFG=0
M  V30 2360 H      -9.0120    48.3880   -34.6700 0 CHG=0 CFG=0
M  V30 2361 H      -7.8490    47.5570   -34.4320 0 CHG=0 CFG=0
M  V30 2362 H      -9.1790    47.0030   -34.2780 0 CHG=0 CFG=0
M  V30 2363 N      -4.8680    50.4100   -30.0770 0 CHG=0 CFG=0
M  V30 2364 C      -4.3360    51.7120   -29.7790 0 CHG=0 CFG=2
M  V30 2365 C      -5.2060    52.8340   -30.3840 0 CHG=0 CFG=0
M  V30 2366 O      -6.0080    52.6200   -31.3090 0 CHG=0 CFG=0
M  V30 2367 C      -2.7840    51.8370   -30.1010 0 CHG=0 CFG=2
M  V30 2368 O      -2.5490    52.6900   -31.2130 0 CHG=0 CFG=0
M  V30 2369 C      -2.1450    50.5130   -30.3480 0 CHG=0 CFG=0
M  V30 2370 H      -4.8380    50.2020   -30.9110 0 CHG=0 CFG=0
M  V30 2371 H      -4.4070    51.8240   -28.8080 0 CHG=0 CFG=0
M  V30 2372 H      -2.3470    52.2250   -29.3270 0 CHG=0 CFG=0
M  V30 2373 H      -1.7440    52.7410   -31.3630 0 CHG=0 CFG=0
M  V30 2374 H      -1.2120    50.6300   -30.5380 0 CHG=0 CFG=0
M  V30 2375 H      -2.2380    49.9550   -29.5720 0 CHG=0 CFG=0
M  V30 2376 H      -2.5650    50.0800   -31.0950 0 CHG=0 CFG=0
M  V30 2377 N      -5.0890    53.9960   -29.7380 0 CHG=0 CFG=0
M  V30 2378 C      -5.7910    55.2050   -30.0660 0 CHG=0 CFG=2
M  V30 2379 C      -5.5520    55.5390   -31.5230 0 CHG=0 CFG=0
M  V30 2380 O      -4.4100    55.5580   -31.9760 0 CHG=0 CFG=0
M  V30 2381 C      -5.3110    56.3930   -29.1650 0 CHG=0 CFG=0
M  V30 2382 C      -5.7930    57.7220   -29.7350 0 CHG=0 CFG=0
M  V30 2383 C      -5.8030    56.2090   -27.6940 0 CHG=0 CFG=0
M  V30 2384 H      -4.5670    54.0980   -29.0620 0 CHG=0 CFG=0
M  V30 2385 H      -6.7530    55.0760   -29.9280 0 CHG=0 CFG=0
M  V30 2386 H      -4.3310    56.4080   -29.1550 0 CHG=0 CFG=0
M  V30 2387 H      -5.4870    58.4340   -29.1680 0 CHG=0 CFG=0
M  V30 2388 H      -5.4350    57.8310   -30.6190 0 CHG=0 CFG=0
M  V30 2389 H      -6.7520    57.7180   -29.7680 0 CHG=0 CFG=0
M  V30 2390 H      -5.4940    56.9500   -27.1660 0 CHG=0 CFG=0
M  V30 2391 H      -6.7620    56.1790   -27.6870 0 CHG=0 CFG=0
M  V30 2392 H      -5.4460    55.3880   -27.3460 0 CHG=0 CFG=0
M  V30 2393 N      -6.6310    55.7680   -32.2610 0 CHG=0 CFG=0
M  V30 2394 C      -6.5250    56.2050   -33.6460 0 CHG=0 CFG=0
M  V30 2395 C      -6.9060    55.1240   -34.6260 0 CHG=0 CFG=0
M  V30 2396 O      -7.3320    55.3970   -35.7320 0 CHG=0 CFG=0
M  V30 2397 H      -7.4390    55.6770   -31.9810 0 CHG=0 CFG=0
M  V30 2398 H      -7.1060    56.9680   -33.7890 0 CHG=0 CFG=0
M  V30 2399 H      -5.6110    56.4760   -33.8290 0 CHG=0 CFG=0
M  V30 2400 N      -6.7550    53.8720   -34.2360 0 CHG=0 CFG=0
M  V30 2401 C      -7.3370    52.7960   -35.0330 0 CHG=0 CFG=2
M  V30 2402 C      -8.8540    52.9090   -35.0350 0 CHG=0 CFG=0
M  V30 2403 O      -9.4580    53.3090   -34.0570 0 CHG=0 CFG=0
M  V30 2404 C      -6.9530    51.4470   -34.4360 0 CHG=0 CFG=0
M  V30 2405 C      -5.4780    51.1390   -34.5740 0 CHG=0 CFG=0
M  V30 2406 C      -5.0230    50.0110   -33.6840 0 CHG=0 CFG=0
M  V30 2407 O      -5.8080    49.4670   -32.8900 0 CHG=0 CFG=0
M  V30 2408 O      -3.8530    49.6590   -33.7600 0 CHG=0 CFG=0
M  V30 2409 H      -6.3330    53.6170   -33.5320 0 CHG=0 CFG=0
M  V30 2410 H      -7.0100    52.8440   -35.9560 0 CHG=0 CFG=0
M  V30 2411 H      -7.1720    51.4460   -33.4910 0 CHG=0 CFG=0
M  V30 2412 H      -7.4490    50.7480   -34.8910 0 CHG=0 CFG=0
M  V30 2413 H      -5.2930    50.8880   -35.4920 0 CHG=0 CFG=0
M  V30 2414 H      -4.9680    51.9300   -34.3380 0 CHG=0 CFG=0
M  V30 2415 N      -9.4520    52.5620   -36.1520 0 CHG=0 CFG=0
M  V30 2416 C     -10.8340    52.1720   -36.2110 0 CHG=0 CFG=2
M  V30 2417 C     -10.8700    50.7560   -35.6760 0 CHG=0 CFG=0
M  V30 2418 O      -9.9030    49.9890   -35.8230 0 CHG=0 CFG=0
M  V30 2419 C     -11.3540    52.1920   -37.6750 0 CHG=0 CFG=0
M  V30 2420 C     -12.8210    51.7720   -37.8760 0 CHG=0 CFG=0
M  V30 2421 C     -13.7400    52.6660   -37.0500 0 CHG=0 CFG=0
M  V30 2422 C     -13.2620    51.7700   -39.3760 0 CHG=0 CFG=0
M  V30 2423 H      -9.0610    52.5450   -36.9180 0 CHG=0 CFG=0
M  V30 2424 H     -11.3880    52.7550   -35.6500 0 CHG=0 CFG=0
M  V30 2425 H     -11.2630    53.0950   -38.0190 0 CHG=0 CFG=0
M  V30 2426 H     -10.8060    51.5900   -38.2020 0 CHG=0 CFG=0
M  V30 2427 H     -12.9260    50.8670   -37.5440 0 CHG=0 CFG=0
M  V30 2428 H     -14.6490    52.3900   -37.1870 0 CHG=0 CFG=0
M  V30 2429 H     -13.5070    52.5810   -36.1230 0 CHG=0 CFG=0
M  V30 2430 H     -13.6270    53.5760   -37.3340 0 CHG=0 CFG=0
M  V30 2431 H     -14.1810    51.5010   -39.4300 0 CHG=0 CFG=0
M  V30 2432 H     -13.1580    52.6560   -39.7320 0 CHG=0 CFG=0
M  V30 2433 H     -12.7100    51.1540   -39.8620 0 CHG=0 CFG=0
M  V30 2434 N     -11.9920    50.4110   -35.0660 0 CHG=0 CFG=0
M  V30 2435 C     -12.1720    49.1270   -34.4410 0 CHG=0 CFG=0
M  V30 2436 C     -13.5870    48.6250   -34.5840 0 CHG=0 CFG=0
M  V30 2437 O     -14.4950    49.3790   -34.9370 0 CHG=0 CFG=0
M  V30 2438 H     -12.6800    50.9230   -35.0030 0 CHG=0 CFG=0
M  V30 2439 H     -11.5720    48.4810   -34.8450 0 CHG=0 CFG=0
M  V30 2440 H     -11.9630    49.1940   -33.4960 0 CHG=0 CFG=0
M  V30 2441 N     -13.7510    47.3370   -34.3140 0 CHG=0 CFG=0
M  V30 2442 C     -14.9860    46.6350   -34.4760 0 CHG=0 CFG=2
M  V30 2443 C     -15.6300    46.5260   -33.1180 0 CHG=0 CFG=0
M  V30 2444 O     -15.0160    46.0750   -32.1370 0 CHG=0 CFG=0
M  V30 2445 C     -14.7340    45.2580   -35.0480 0 CHG=0 CFG=0
M  V30 2446 C     -16.0310    44.5150   -35.3980 0 CHG=0 CFG=0
M  V30 2447 O     -16.3990    44.4690   -36.6080 0 CHG=0 CFG=0
M  V30 2448 O     -16.6900    43.9860   -34.4710 0 CHG=0 CFG=0
M  V30 2449 H     -13.1180    46.8340   -34.0200 0 CHG=0 CFG=0
M  V30 2450 H     -15.5810    47.1310   -35.0770 0 CHG=0 CFG=0
M  V30 2451 H     -14.2080    45.3430   -35.8580 0 CHG=0 CFG=0
M  V30 2452 H     -14.2520    44.7280   -34.3940 0 CHG=0 CFG=0
M  V30 2453 N     -16.8880    46.9420   -33.0660 0 CHG=0 CFG=0
M  V30 2454 C     -17.6630    46.8800   -31.8480 0 CHG=0 CFG=2
M  V30 2455 C     -17.8960    45.4510   -31.3300 0 CHG=0 CFG=0
M  V30 2456 O     -17.6560    45.1730   -30.1600 0 CHG=0 CFG=0
M  V30 2457 C     -19.0070    47.5810   -32.0630 0 CHG=0 CFG=0
M  V30 2458 C     -19.9670    47.2090   -30.9540 0 CHG=0 CFG=0
M  V30 2459 C     -18.7920    49.1240   -32.1430 0 CHG=0 CFG=0
M  V30 2460 H     -17.3170    47.2680   -33.7360 0 CHG=0 CFG=0
M  V30 2461 H     -17.1820    47.3710   -31.1500 0 CHG=0 CFG=0
M  V30 2462 H     -19.3930    47.2820   -32.9130 0 CHG=0 CFG=0
M  V30 2463 H     -20.8030    47.6560   -31.1030 0 CHG=0 CFG=0
M  V30 2464 H     -20.0970    46.2580   -30.9600 0 CHG=0 CFG=0
M  V30 2465 H     -19.5930    47.4840   -30.1140 0 CHG=0 CFG=0
M  V30 2466 H     -19.6420    49.5510   -32.2770 0 CHG=0 CFG=0
M  V30 2467 H     -18.3990    49.4270   -31.3210 0 CHG=0 CFG=0
M  V30 2468 H     -18.2070    49.3200   -32.8780 0 CHG=0 CFG=0
M  V30 2469 N     -18.3940    44.5530   -32.1800 0 CHG=0 CFG=0
M  V30 2470 C     -18.5510    43.1720   -31.7540 0 CHG=0 CFG=2
M  V30 2471 C     -17.2440    42.5600   -31.1720 0 CHG=0 CFG=0
M  V30 2472 O     -17.2780    41.9820   -30.0850 0 CHG=0 CFG=0
M  V30 2473 C     -19.0800    42.3030   -32.9020 0 CHG=0 CFG=0
M  V30 2474 C     -19.0300    40.8230   -32.5920 0 CHG=0 CFG=0
M  V30 2475 C     -19.1270    40.0150   -33.8100 0 CHG=0 CFG=0
M  V30 2476 N     -17.9660    40.1240   -34.6900 0 CHG=0 CFG=0
M  V30 2477 C     -16.7910    39.5190   -34.5280 0 CHG=0 CFG=0
M  V30 2478 N     -16.5380    38.7800   -33.4730 0 CHG=0 CFG=0
M  V30 2479 N     -15.8300    39.7190   -35.4200 0 CHG=0 CFG=0
M  V30 2480 H     -18.6410    44.7150   -32.9880 0 CHG=0 CFG=0
M  V30 2481 H     -19.2230    43.1490   -31.0410 0 CHG=0 CFG=0
M  V30 2482 H     -20.0030    42.5410   -33.0780 0 CHG=0 CFG=0
M  V30 2483 H     -18.5400    42.4610   -33.6920 0 CHG=0 CFG=0
M  V30 2484 H     -18.1890    40.6150   -32.1560 0 CHG=0 CFG=0
M  V30 2485 H     -19.7740    40.5920   -32.0150 0 CHG=0 CFG=0
M  V30 2486 H     -19.2220    39.0830   -33.5590 0 CHG=0 CFG=0
M  V30 2487 H     -19.9060    40.3010   -34.3120 0 CHG=0 CFG=0
M  V30 2488 H     -18.0490    40.6300   -35.3800 0 CHG=0 CFG=0
M  V30 2489 H     -17.1510    38.6460   -32.8850 0 CHG=0 CFG=0
M  V30 2490 H     -15.7680    38.4070   -33.3840 0 CHG=0 CFG=0
M  V30 2491 H     -15.9800    40.2110   -36.1090 0 CHG=0 CFG=0
M  V30 2492 H     -15.0630    39.3440   -35.3170 0 CHG=0 CFG=0
M  V30 2493 N     -16.1160    42.6850   -31.8690 0 CHG=0 CFG=0
M  V30 2494 C     -14.8440    42.1350   -31.3590 0 CHG=0 CFG=2
M  V30 2495 C     -14.5050    42.7510   -30.0370 0 CHG=0 CFG=0
M  V30 2496 O     -14.0340    42.0620   -29.1330 0 CHG=0 CFG=0
M  V30 2497 C     -13.6530    42.3400   -32.2860 0 CHG=0 CFG=0
M  V30 2498 C     -13.8040    41.6250   -33.6460 0 CHG=0 CFG=0
M  V30 2499 C     -12.5440    41.6780   -34.5100 0 CHG=0 CFG=0
M  V30 2500 O     -12.7320    41.6400   -35.7550 0 CHG=0 CFG=0
M  V30 2501 O     -11.3950    41.7590   -33.9460 0 CHG=0 CFG=0
M  V30 2502 H     -16.0530    43.0770   -32.6320 0 CHG=0 CFG=0
M  V30 2503 H     -14.9520    41.1710   -31.2210 0 CHG=0 CFG=0
M  V30 2504 H     -13.5490    43.2890   -32.4580 0 CHG=0 CFG=0
M  V30 2505 H     -12.8560    41.9940   -31.8540 0 CHG=0 CFG=0
M  V30 2506 H     -14.0170    40.6920   -33.4870 0 CHG=0 CFG=0
M  V30 2507 H     -14.5230    42.0470   -34.1430 0 CHG=0 CFG=0
M  V30 2508 N     -14.7620    44.0400   -29.9160 0 CHG=0 CFG=0
M  V30 2509 C     -14.4350    44.7010   -28.6800 0 CHG=0 CFG=2
M  V30 2510 C     -15.2540    44.1620   -27.5210 0 CHG=0 CFG=0
M  V30 2511 O     -14.7200    43.9660   -26.4100 0 CHG=0 CFG=0
M  V30 2512 C     -14.5950    46.2090   -28.7740 0 CHG=0 CFG=2
M  V30 2513 O     -13.6390    46.7270   -29.7210 0 CHG=0 CFG=0
M  V30 2514 C     -14.3420    46.8430   -27.4350 0 CHG=0 CFG=0
M  V30 2515 H     -15.1170    44.5400   -30.5190 0 CHG=0 CFG=0
M  V30 2516 H     -13.4930    44.5210   -28.4780 0 CHG=0 CFG=0
M  V30 2517 H     -15.4960    46.4290   -29.0600 0 CHG=0 CFG=0
M  V30 2518 H     -13.7670    46.3930   -30.4590 0 CHG=0 CFG=0
M  V30 2519 H     -14.4440    47.7950   -27.4980 0 CHG=0 CFG=0
M  V30 2520 H     -14.9660    46.5040   -26.7890 0 CHG=0 CFG=0
M  V30 2521 H     -13.4500    46.6430   -27.1410 0 CHG=0 CFG=0
M  V30 2522 N     -16.5340    43.9160   -27.7670 0 CHG=0 CFG=0
M  V30 2523 C     -17.4260    43.4560   -26.7110 0 CHG=0 CFG=2
M  V30 2524 C     -16.9970    42.0490   -26.3420 0 CHG=0 CFG=0
M  V30 2525 O     -17.0890    41.6180   -25.1980 0 CHG=0 CFG=0
M  V30 2526 C     -18.8750    43.4320   -27.1900 0 CHG=0 CFG=0
M  V30 2527 C     -19.4780    44.7780   -27.2940 0 CHG=0 CFG=0
M  V30 2528 S     -19.6780    45.4910   -25.6530 0 CHG=0 CFG=0
M  V30 2529 C     -21.0340    44.5390   -25.0370 0 CHG=0 CFG=0
M  V30 2530 H     -16.9100    44.0070   -28.5350 0 CHG=0 CFG=0
M  V30 2531 H     -17.3560    44.0440   -25.9310 0 CHG=0 CFG=0
M  V30 2532 H     -18.9080    43.0210   -28.0680 0 CHG=0 CFG=0
M  V30 2533 H     -19.4040    42.9150   -26.5630 0 CHG=0 CFG=0
M  V30 2534 H     -18.8970    45.3560   -27.8130 0 CHG=0 CFG=0
M  V30 2535 H     -20.3520    44.7120   -27.7100 0 CHG=0 CFG=0
M  V30 2536 H     -21.2420    44.8320   -24.1470 0 CHG=0 CFG=0
M  V30 2537 H     -21.7930    44.6700   -25.6110 0 CHG=0 CFG=0
M  V30 2538 H     -20.7860    43.6120   -25.0280 0 CHG=0 CFG=0
M  V30 2539 N     -16.5480    41.3200   -27.3370 0 CHG=0 CFG=0
M  V30 2540 C     -15.9960    40.0290   -27.0510 0 CHG=0 CFG=2
M  V30 2541 C     -14.8960    40.0680   -25.9710 0 CHG=0 CFG=0
M  V30 2542 O     -14.9190    39.2770   -25.0000 0 CHG=0 CFG=0
M  V30 2543 C     -15.4200    39.4610   -28.3020 0 CHG=0 CFG=2
M  V30 2544 O     -16.4980    38.9330   -29.0770 0 CHG=0 CFG=0
M  V30 2545 C     -14.4710    38.3670   -27.9700 0 CHG=0 CFG=0
M  V30 2546 H     -16.5520    41.5450   -28.1670 0 CHG=0 CFG=0
M  V30 2547 H     -16.7090    39.4330   -26.7420 0 CHG=0 CFG=0
M  V30 2548 H     -14.9540    40.1500   -28.8010 0 CHG=0 CFG=0
M  V30 2549 H     -17.0310    39.5290   -29.2580 0 CHG=0 CFG=0
M  V30 2550 H     -14.0990    37.9990   -28.7750 0 CHG=0 CFG=0
M  V30 2551 H     -13.7580    38.7060   -27.4240 0 CHG=0 CFG=0
M  V30 2552 H     -14.9270    37.6710   -27.4910 0 CHG=0 CFG=0
M  V30 2553 N     -13.9240    40.9650   -26.1370 0 CHG=0 CFG=0
M  V30 2554 C     -12.8330    41.0760   -25.1760 0 CHG=0 CFG=2
M  V30 2555 C     -13.3760    41.5200   -23.8130 0 CHG=0 CFG=0
M  V30 2556 O     -13.0490    40.9200   -22.7920 0 CHG=0 CFG=0
M  V30 2557 C     -11.7510    42.0390   -25.6730 0 CHG=0 CFG=0
M  V30 2558 C     -10.9900    41.5210   -26.8460 0 CHG=0 CFG=0
M  V30 2559 N      -9.9990    40.5740   -26.7270 0 CHG=0 CFG=0
M  V30 2560 C     -11.1050    41.7760   -28.1660 0 CHG=0 CFG=0
M  V30 2561 C      -9.5400    40.2620   -27.9230 0 CHG=0 CFG=0
M  V30 2562 N     -10.1930    40.9820   -28.8160 0 CHG=1 CFG=0
M  V30 2563 H     -13.8750    41.5160   -26.7950 0 CHG=0 CFG=0
M  V30 2564 H     -12.4200    40.1940   -25.0620 0 CHG=0 CFG=0
M  V30 2565 H     -12.1700    42.8740   -25.9340 0 CHG=0 CFG=0
M  V30 2566 H     -11.1190    42.1980   -24.9540 0 CHG=0 CFG=0
M  V30 2567 H      -9.7350    40.2240   -25.9870 0 CHG=0 CFG=0
M  V30 2568 H     -11.7010    42.3700   -28.5630 0 CHG=0 CFG=0
M  V30 2569 H      -8.8570    39.6580   -28.1040 0 CHG=0 CFG=0
M  V30 2570 H     -10.0580    40.9680   -29.6650 0 CHG=0 CFG=0
M  V30 2571 N     -14.2420    42.5330   -23.8020 0 CHG=0 CFG=0
M  V30 2572 C     -14.7450    43.1090   -22.5560 0 CHG=0 CFG=2
M  V30 2573 C     -15.6930    42.1880   -21.7780 0 CHG=0 CFG=0
M  V30 2574 O     -15.7270    42.2260   -20.5540 0 CHG=0 CFG=0
M  V30 2575 C     -15.5140    44.3910   -22.8420 0 CHG=0 CFG=0
M  V30 2576 C     -14.7880    45.7180   -22.9940 0 CHG=0 CFG=0
M  V30 2577 C     -15.8560    46.7640   -23.3790 0 CHG=0 CFG=0
M  V30 2578 C     -14.0180    46.1360   -21.7240 0 CHG=0 CFG=0
M  V30 2579 H     -14.5560    42.9080   -24.5090 0 CHG=0 CFG=0
M  V30 2580 H     -13.9870    43.3290   -21.9750 0 CHG=0 CFG=0
M  V30 2581 H     -16.0040    44.2540   -23.6680 0 CHG=0 CFG=0
M  V30 2582 H     -16.1510    44.5120   -22.1210 0 CHG=0 CFG=0
M  V30 2583 H     -14.1530    45.6510   -23.7250 0 CHG=0 CFG=0
M  V30 2584 H     -15.4320    47.6190   -23.4840 0 CHG=0 CFG=0
M  V30 2585 H     -16.2690    46.5000   -24.2050 0 CHG=0 CFG=0
M  V30 2586 H     -16.5150    46.8090   -22.6830 0 CHG=0 CFG=0
M  V30 2587 H     -13.5840    46.9770   -21.8850 0 CHG=0 CFG=0
M  V30 2588 H     -14.6390    46.2210   -20.9970 0 CHG=0 CFG=0
M  V30 2589 H     -13.3640    45.4630   -21.5200 0 CHG=0 CFG=0
M  V30 2590 N     -16.5020    41.4040   -22.4830 0 CHG=0 CFG=0
M  V30 2591 C     -17.4970    40.5850   -21.8080 0 CHG=0 CFG=2
M  V30 2592 C     -16.8710    39.3700   -21.1450 0 CHG=0 CFG=0
M  V30 2593 O     -17.4350    38.8730   -20.1810 0 CHG=0 CFG=0
M  V30 2594 C     -18.6230    40.1530   -22.7510 0 CHG=0 CFG=0
M  V30 2595 C     -19.5890    41.2600   -23.1790 0 CHG=0 CFG=0
M  V30 2596 C     -20.7000    40.6400   -23.9990 0 CHG=0 CFG=0
M  V30 2597 C     -20.1450    42.0380   -21.9730 0 CHG=0 CFG=0
M  V30 2598 H     -16.4950    41.3300   -23.3390 0 CHG=0 CFG=0
M  V30 2599 H     -17.9050    41.1240   -21.0990 0 CHG=0 CFG=0
M  V30 2600 H     -18.2250    39.7870   -23.5560 0 CHG=0 CFG=0
M  V30 2601 H     -19.1460    39.4660   -22.3080 0 CHG=0 CFG=0
M  V30 2602 H     -19.1150    41.8890   -23.7450 0 CHG=0 CFG=0
M  V30 2603 H     -21.3090    41.3300   -24.2710 0 CHG=0 CFG=0
M  V30 2604 H     -20.3180    40.2170   -24.7720 0 CHG=0 CFG=0
M  V30 2605 H     -21.1580    39.9900   -23.4620 0 CHG=0 CFG=0
M  V30 2606 H     -20.7430    42.7180   -22.2900 0 CHG=0 CFG=0
M  V30 2607 H     -20.6160    41.4290   -21.3990 0 CHG=0 CFG=0
M  V30 2608 H     -19.4150    42.4390   -21.4960 0 CHG=0 CFG=0
M  V30 2609 N     -15.7290    38.9110   -21.6730 0 CHG=0 CFG=0
M  V30 2610 C     -14.7890    38.0330   -20.9610 0 CHG=0 CFG=2
M  V30 2611 C     -14.4780    38.5610   -19.5560 0 CHG=0 CFG=0
M  V30 2612 O     -14.0770    37.8090   -18.6880 0 CHG=0 CFG=0
M  V30 2613 C     -13.4530    37.9030   -21.7220 0 CHG=0 CFG=0
M  V30 2614 C     -13.4500    36.8540   -22.8270 0 CHG=0 CFG=0
M  V30 2615 C     -12.3310    37.0120   -23.8960 0 CHG=0 CFG=0
M  V30 2616 O     -12.3420    36.2850   -24.9030 0 CHG=0 CFG=0
M  V30 2617 N     -11.3810    37.9280   -23.6860 0 CHG=0 CFG=0
M  V30 2618 H     -15.4700    39.1010   -22.4710 0 CHG=0 CFG=0
M  V30 2619 H     -15.1830    37.1400   -20.8740 0 CHG=0 CFG=0
M  V30 2620 H     -13.2440    38.7580   -22.1290 0 CHG=0 CFG=0
M  V30 2621 H     -12.7580    37.6640   -21.0890 0 CHG=0 CFG=0
M  V30 2622 H     -13.3430    35.9800   -22.4200 0 CHG=0 CFG=0
M  V30 2623 H     -14.3020    36.8930   -23.2890 0 CHG=0 CFG=0
M  V30 2624 H     -11.3990    38.4110   -22.9740 0 CHG=0 CFG=0
M  V30 2625 H     -10.7510    38.0340   -24.2620 0 CHG=0 CFG=0
M  V30 2626 N     -14.6430    39.8500   -19.3180 0 CHG=0 CFG=0
M  V30 2627 C     -14.3930    40.3570   -17.9900 0 CHG=0 CFG=2
M  V30 2628 C     -15.6800    40.7630   -17.3080 0 CHG=0 CFG=0
M  V30 2629 O     -15.6640    41.4800   -16.2900 0 CHG=0 CFG=0
M  V30 2630 C     -13.4480    41.5290   -18.0600 0 CHG=0 CFG=0
M  V30 2631 C     -12.0320    41.1290   -18.3020 0 CHG=0 CFG=0
M  V30 2632 N     -11.1470    40.8890   -17.2790 0 CHG=0 CFG=0
M  V30 2633 C     -11.3480    40.9250   -19.4460 0 CHG=0 CFG=0
M  V30 2634 C      -9.9770    40.5570   -17.7850 0 CHG=0 CFG=0
M  V30 2635 N     -10.0770    40.5580   -19.0980 0 CHG=1 CFG=0
M  V30 2636 H     -14.8920    40.4380   -19.8950 0 CHG=0 CFG=0
M  V30 2637 H     -13.9700    39.6550   -17.4530 0 CHG=0 CFG=0
M  V30 2638 H     -13.7220    42.1110   -18.7850 0 CHG=0 CFG=0
M  V30 2639 H     -13.4820    42.0100   -17.2180 0 CHG=0 CFG=0
M  V30 2640 H     -11.3270    40.9510   -16.4400 0 CHG=0 CFG=0
M  V30 2641 H     -11.6820    41.0040   -20.3100 0 CHG=0 CFG=0
M  V30 2642 H      -9.2150    40.3430   -17.2980 0 CHG=0 CFG=0
M  V30 2643 H      -9.4410    40.3770   -19.6480 0 CHG=0 CFG=0
M  V30 2644 N     -16.7920    40.2990   -17.8690 0 CHG=0 CFG=0
M  V30 2645 C     -18.1070    40.6300   -17.3230 0 CHG=0 CFG=2
M  V30 2646 C     -18.6200    39.4920   -16.4480 0 CHG=0 CFG=0
M  V30 2647 O     -18.2280    38.3330   -16.6140 0 CHG=0 CFG=0
M  V30 2648 C     -19.0950    40.9040   -18.4560 0 CHG=0 CFG=0
M  V30 2649 H     -16.8140    39.7930   -18.5650 0 CHG=0 CFG=0
M  V30 2650 H     -18.0370    41.4370   -16.7710 0 CHG=0 CFG=0
M  V30 2651 H     -19.9510    41.1190   -18.0790 0 CHG=0 CFG=0
M  V30 2652 H     -18.7730    41.6420   -18.9790 0 CHG=0 CFG=0
M  V30 2653 H     -19.1660    40.1200   -19.0050 0 CHG=0 CFG=0
M  V30 2654 N     -19.5240    39.8060   -15.5360 0 CHG=0 CFG=0
M  V30 2655 C     -20.1420    38.7500   -14.7450 0 CHG=0 CFG=2
M  V30 2656 C     -21.1880    37.9380   -15.5210 0 CHG=0 CFG=0
M  V30 2657 O     -22.3620    38.2380   -15.4350 0 CHG=0 CFG=0
M  V30 2658 C     -20.7820    39.3260   -13.4790 0 CHG=0 CFG=0
M  V30 2659 C     -20.8210    38.3030   -12.3210 0 CHG=0 CFG=0
M  V30 2660 O     -19.8470    37.5810   -12.0740 0 CHG=0 CFG=0
M  V30 2661 N     -21.9550    38.2400   -11.6200 0 CHG=0 CFG=0
M  V30 2662 H     -19.7940    40.6020   -15.3570 0 CHG=0 CFG=0
M  V30 2663 H     -19.4400    38.1270   -14.4610 0 CHG=0 CFG=0
M  V30 2664 H     -20.2680    40.0940   -13.1850 0 CHG=0 CFG=0
M  V30 2665 H     -21.6930    39.5920   -13.6770 0 CHG=0 CFG=0
M  V30 2666 H     -22.6150    38.7540   -11.8220 0 CHG=0 CFG=0
M  V30 2667 H     -22.0260    37.6870   -10.9660 0 CHG=0 CFG=0
M  V30 2668 N     -20.7650    36.9050   -16.2480 0 CHG=0 CFG=0
M  V30 2669 C     -21.6860    36.0690   -17.0260 0 CHG=0 CFG=2
M  V30 2670 C     -21.8430    34.7280   -16.3750 0 CHG=0 CFG=0
M  V30 2671 O     -22.2600    33.7530   -17.0120 0 CHG=0 CFG=0
M  V30 2672 C     -21.1550    35.8290   -18.4240 0 CHG=0 CFG=0
M  V30 2673 C     -20.9030    37.0990   -19.2220 0 CHG=0 CFG=0
M  V30 2674 C     -20.3210    36.7370   -20.6080 0 CHG=0 CFG=0
M  V30 2675 C     -22.1930    37.9160   -19.3400 0 CHG=0 CFG=0
M  V30 2676 H     -19.9420    36.6630   -16.3090 0 CHG=0 CFG=0
M  V30 2677 H     -22.5640    36.5010   -17.0860 0 CHG=0 CFG=0
M  V30 2678 H     -20.3150    35.3490   -18.3590 0 CHG=0 CFG=0
M  V30 2679 H     -21.8000    35.2950   -18.9140 0 CHG=0 CFG=0
M  V30 2680 H     -20.2480    37.6410   -18.7550 0 CHG=0 CFG=0
M  V30 2681 H     -20.1670    37.5460   -21.1020 0 CHG=0 CFG=0
M  V30 2682 H     -19.4950    36.2640   -20.4850 0 CHG=0 CFG=0
M  V30 2683 H     -20.9510    36.1830   -21.0750 0 CHG=0 CFG=0
M  V30 2684 H     -22.0140    38.7120   -19.8460 0 CHG=0 CFG=0
M  V30 2685 H     -22.8580    37.3870   -19.7870 0 CHG=0 CFG=0
M  V30 2686 H     -22.4970    38.1490   -18.4600 0 CHG=0 CFG=0
M  V30 2687 N     -21.5080    34.6810   -15.0990 0 CHG=0 CFG=0
M  V30 2688 C     -21.2190    33.4170   -14.4560 0 CHG=0 CFG=2
M  V30 2689 C     -22.5090    32.6120   -14.3160 0 CHG=0 CFG=0
M  V30 2690 O     -22.4820    31.3930   -14.1520 0 CHG=0 CFG=0
M  V30 2691 C     -20.4870    33.6910   -13.1450 0 CHG=0 CFG=0
M  V30 2692 C     -19.5490    34.9230   -13.3120 0 CHG=0 CFG=0
M  V30 2693 C     -18.1900    34.8140   -12.5990 0 CHG=0 CFG=0
M  V30 2694 O     -18.1600    34.9760   -11.3560 0 CHG=0 CFG=0
M  V30 2695 O     -17.1540    34.5920   -13.2850 0 CHG=0 CFG=0
M  V30 2696 H     -21.4410    35.3660   -14.5840 0 CHG=0 CFG=0
M  V30 2697 H     -20.6130    32.9050   -15.0310 0 CHG=0 CFG=0
M  V30 2698 H     -21.1320    33.8860   -12.4470 0 CHG=0 CFG=0
M  V30 2699 H     -19.9480    32.9210   -12.9070 0 CHG=0 CFG=0
M  V30 2700 H     -19.3720    35.0490   -14.2580 0 CHG=0 CFG=0
M  V30 2701 H     -20.0010    35.7050   -12.9600 0 CHG=0 CFG=0
M  V30 2702 N     -23.6430    33.2820   -14.4730 0 CHG=0 CFG=0
M  V30 2703 C     -24.9160    32.5820   -14.4220 0 CHG=0 CFG=2
M  V30 2704 C     -25.7190    32.6700   -15.7370 0 CHG=0 CFG=0
M  V30 2705 O     -26.9360    32.4030   -15.7550 0 CHG=0 CFG=0
M  V30 2706 C     -25.7560    33.1320   -13.2700 0 CHG=0 CFG=0
M  V30 2707 O     -26.3010    34.3870   -13.6200 0 CHG=0 CFG=0
M  V30 2708 H     -23.7020    34.1290   -14.6070 0 CHG=0 CFG=0
M  V30 2709 H     -24.7460    31.6340   -14.2410 0 CHG=0 CFG=0
M  V30 2710 H     -26.4790    32.5130   -13.0800 0 CHG=0 CFG=0
M  V30 2711 H     -25.1920    33.2370   -12.4880 0 CHG=0 CFG=0
M  V30 2712 H     -26.7510    34.6800   -13.0000 0 CHG=0 CFG=0
M  V30 2713 N     -25.0570    33.0530   -16.8270 0 CHG=0 CFG=0
M  V30 2714 C     -25.7460    33.1400   -18.1040 0 CHG=0 CFG=2
M  V30 2715 C     -25.7280    31.7830   -18.7530 0 CHG=0 CFG=0
M  V30 2716 O     -24.7690    31.0540   -18.6070 0 CHG=0 CFG=0
M  V30 2717 C     -25.1180    34.1510   -18.9760 0 CHG=0 CFG=0
M  V30 2718 H     -24.2240    33.2640   -16.8510 0 CHG=0 CFG=0
M  V30 2719 H     -26.6800    33.3980   -17.9540 0 CHG=0 CFG=0
M  V30 2720 H     -25.5940    34.1840   -19.8090 0 CHG=0 CFG=0
M  V30 2721 H     -25.1570    35.0060   -18.5420 0 CHG=0 CFG=0
M  V30 2722 H     -24.2030    33.9030   -19.1310 0 CHG=0 CFG=0
M  V30 2723 N     -26.8020    31.4450   -19.4580 0 CHG=0 CFG=0
M  V30 2724 C     -26.9630    30.1170   -20.0350 0 CHG=0 CFG=2
M  V30 2725 C     -27.7630    30.2580   -21.3200 0 CHG=0 CFG=0
M  V30 2726 O     -28.7090    31.0270   -21.3760 0 CHG=0 CFG=0
M  V30 2727 C     -27.7130    29.2240   -19.0320 0 CHG=0 CFG=0
M  V30 2728 C     -27.6820    27.7170   -19.2860 0 CHG=0 CFG=0
M  V30 2729 C     -29.0020    27.0780   -18.8200 0 CHG=0 CFG=0
M  V30 2730 C     -28.9120    26.4590   -17.4310 0 CHG=0 CFG=0
M  V30 2731 N     -30.2750    26.1550   -16.8790 0 CHG=1 CFG=0
M  V30 2732 H     -27.4600    31.9750   -19.6180 0 CHG=0 CFG=0
M  V30 2733 H     -26.0890    29.7210   -20.2360 0 CHG=0 CFG=0
M  V30 2734 H     -27.3320    29.3730   -18.1520 0 CHG=0 CFG=0
M  V30 2735 H     -28.6450    29.4940   -19.0260 0 CHG=0 CFG=0
M  V30 2736 H     -27.5770    27.5500   -20.2360 0 CHG=0 CFG=0
M  V30 2737 H     -26.9530    27.3180   -18.7870 0 CHG=0 CFG=0
M  V30 2738 H     -29.6910    27.7600   -18.7990 0 CHG=0 CFG=0
M  V30 2739 H     -29.2490    26.3780   -19.4440 0 CHG=0 CFG=0
M  V30 2740 H     -28.4120    25.6300   -17.4810 0 CHG=0 CFG=0
M  V30 2741 H     -28.4730    27.0810   -16.8300 0 CHG=0 CFG=0
M  V30 2742 H     -30.2010    25.7950   -16.0690 0 CHG=0 CFG=0
M  V30 2743 H     -30.7530    26.9030   -16.8210 0 CHG=0 CFG=0
M  V30 2744 H     -30.6980    25.5820   -17.4130 0 CHG=0 CFG=0
M  V30 2745 N     -27.3820    29.5310   -22.3590 0 CHG=0 CFG=0
M  V30 2746 C     -28.1220    29.5510   -23.6190 0 CHG=0 CFG=2
M  V30 2747 C     -28.1440    28.1470   -24.1320 0 CHG=0 CFG=0
M  V30 2748 O     -27.1090    27.4980   -24.1480 0 CHG=0 CFG=0
M  V30 2749 C     -27.4550    30.4530   -24.6790 0 CHG=0 CFG=0
M  V30 2750 C     -27.8590    30.0780   -26.1440 0 CHG=0 CFG=0
M  V30 2751 C     -27.3640    31.0480   -27.1950 0 CHG=0 CFG=0
M  V30 2752 N     -28.0100    32.3590   -27.0840 0 CHG=0 CFG=0
M  V30 2753 C     -27.5000    33.4870   -27.5510 0 CHG=0 CFG=0
M  V30 2754 N     -26.3330    33.4910   -28.1800 0 CHG=0 CFG=0
M  V30 2755 N     -28.1420    34.6160   -27.3750 0 CHG=0 CFG=0
M  V30 2756 H     -26.6940    29.0140   -22.3640 0 CHG=0 CFG=0
M  V30 2757 H     -29.0410    29.8550   -23.4680 0 CHG=0 CFG=0
M  V30 2758 H     -27.7190    31.3730   -24.5220 0 CHG=0 CFG=0
M  V30 2759 H     -26.4920    30.3670   -24.6040 0 CHG=0 CFG=0
M  V30 2760 H     -27.4930    29.2050   -26.3530 0 CHG=0 CFG=0
M  V30 2761 H     -28.8270    30.0500   -26.2010 0 CHG=0 CFG=0
M  V30 2762 H     -26.4080    31.1730   -27.0880 0 CHG=0 CFG=0
M  V30 2763 H     -27.5580    30.6890   -28.0750 0 CHG=0 CFG=0
M  V30 2764 H     -28.7730    32.3980   -26.6890 0 CHG=0 CFG=0
M  V30 2765 H     -25.9010    32.7560   -28.2900 0 CHG=0 CFG=0
M  V30 2766 H     -26.0100    34.2290   -28.4800 0 CHG=0 CFG=0
M  V30 2767 H     -28.9010    34.6200   -26.9710 0 CHG=0 CFG=0
M  V30 2768 H     -27.8160    35.3490   -27.6860 0 CHG=0 CFG=0
M  V30 2769 N     -29.3130    27.6590   -24.5220 0 CHG=0 CFG=0
M  V30 2770 C     -29.4200    26.3010   -25.0410 0 CHG=0 CFG=2
M  V30 2771 C     -30.0390    26.4100   -26.3930 0 CHG=0 CFG=0
M  V30 2772 O     -31.0760    27.0530   -26.5300 0 CHG=0 CFG=0
M  V30 2773 C     -30.3390    25.3620   -24.1770 0 CHG=0 CFG=0
M  V30 2774 C     -30.5740    24.0660   -24.9070 0 CHG=0 CFG=0
M  V30 2775 C     -29.7420    25.0960   -22.8090 0 CHG=0 CFG=0
M  V30 2776 H     -30.0570    28.0890   -24.4980 0 CHG=0 CFG=0
M  V30 2777 H     -28.5310    25.8970   -25.1240 0 CHG=0 CFG=0
M  V30 2778 H     -31.2080    25.7980   -24.0480 0 CHG=0 CFG=0
M  V30 2779 H     -31.1350    23.5030   -24.3690 0 CHG=0 CFG=0
M  V30 2780 H     -31.0030    24.2540   -25.7450 0 CHG=0 CFG=0
M  V30 2781 H     -29.7290    23.6370   -25.0600 0 CHG=0 CFG=0
M  V30 2782 H     -30.3330    24.5220   -22.3170 0 CHG=0 CFG=0
M  V30 2783 H     -28.8880    24.6720   -22.9180 0 CHG=0 CFG=0
M  V30 2784 H     -29.6370    25.9310   -22.3470 0 CHG=0 CFG=0
M  V30 2785 N     -29.3990    25.7880   -27.3800 0 CHG=0 CFG=0
M  V30 2786 C     -29.8810    25.8140   -28.7490 0 CHG=0 CFG=2
M  V30 2787 C     -30.0560    24.3970   -29.1980 0 CHG=0 CFG=0
M  V30 2788 O     -29.2620    23.5250   -28.8580 0 CHG=0 CFG=0
M  V30 2789 C     -28.8920    26.4770   -29.7180 0 CHG=0 CFG=0
M  V30 2790 C     -28.4120    27.9030   -29.5060 0 CHG=0 CFG=0
M  V30 2791 C     -27.1000    28.1250   -30.2790 0 CHG=0 CFG=0
M  V30 2792 C     -29.4700    28.9100   -29.9040 0 CHG=0 CFG=0
M  V30 2793 H     -28.6730    25.3400   -27.2760 0 CHG=0 CFG=0
M  V30 2794 H     -30.7430    26.2780   -28.7970 0 CHG=0 CFG=0
M  V30 2795 H     -28.0950    25.9240   -29.7350 0 CHG=0 CFG=0
M  V30 2796 H     -29.2990    26.4570   -30.5980 0 CHG=0 CFG=0
M  V30 2797 H     -28.2240    28.0310   -28.5630 0 CHG=0 CFG=0
M  V30 2798 H     -26.8050    29.0270   -30.1400 0 CHG=0 CFG=0
M  V30 2799 H     -26.4390    27.5090   -29.9550 0 CHG=0 CFG=0
M  V30 2800 H     -27.2590    27.9720   -31.2140 0 CHG=0 CFG=0
M  V30 2801 H     -29.1290    29.7950   -29.7560 0 CHG=0 CFG=0
M  V30 2802 H     -29.6800    28.7900   -30.8330 0 CHG=0 CFG=0
M  V30 2803 H     -30.2540    28.7660   -29.3690 0 CHG=0 CFG=0
M  V30 2804 N     -31.1060    24.2180   -29.9850 0 CHG=0 CFG=0
M  V30 2805 C     -31.4500    22.9880   -30.6420 0 CHG=0 CFG=2
M  V30 2806 C     -30.9700    23.1170   -32.0590 0 CHG=0 CFG=0
M  V30 2807 O     -31.0890    24.1750   -32.6540 0 CHG=0 CFG=0
M  V30 2808 C     -32.9680    22.8930   -30.6840 0 CHG=0 CFG=0
M  V30 2809 C     -33.4750    21.5050   -30.4440 0 CHG=0 CFG=0
M  V30 2810 O     -34.0260    20.8760   -31.3420 0 CHG=0 CFG=0
M  V30 2811 N     -33.2980    21.0130   -29.2240 0 CHG=0 CFG=0
M  V30 2812 H     -31.6660    24.8470   -30.1590 0 CHG=0 CFG=0
M  V30 2813 H     -31.0550    22.2070   -30.2010 0 CHG=0 CFG=0
M  V30 2814 H     -33.3390    23.4690   -29.9970 0 CHG=0 CFG=0
M  V30 2815 H     -33.2780    23.1780   -31.5580 0 CHG=0 CFG=0
M  V30 2816 H     -32.9100    21.4870   -28.6210 0 CHG=0 CFG=0
M  V30 2817 H     -33.5720    20.2190   -29.0370 0 CHG=0 CFG=0
M  V30 2818 N     -30.4470    22.0540   -32.6280 0 CHG=0 CFG=0
M  V30 2819 C     -30.0140    22.1140   -34.0110 0 CHG=0 CFG=2
M  V30 2820 C     -30.7030    20.9850   -34.7330 0 CHG=0 CFG=0
M  V30 2821 O     -30.8890    19.9160   -34.1620 0 CHG=0 CFG=0
M  V30 2822 C     -28.4990    21.9780   -34.1470 0 CHG=0 CFG=0
M  V30 2823 C     -28.0540    22.4940   -35.5120 0 CHG=0 CFG=0
M  V30 2824 C     -27.7770    22.7230   -32.9950 0 CHG=0 CFG=0
M  V30 2825 H     -30.3310    21.2920   -32.2450 0 CHG=0 CFG=0
M  V30 2826 H     -30.2940    22.9640   -34.4110 0 CHG=0 CFG=0
M  V30 2827 H     -28.2590    21.0290   -34.0900 0 CHG=0 CFG=0
M  V30 2828 H     -27.1010    22.4030   -35.5840 0 CHG=0 CFG=0
M  V30 2829 H     -28.4850    21.9780   -36.1970 0 CHG=0 CFG=0
M  V30 2830 H     -28.3020    23.4180   -35.5920 0 CHG=0 CFG=0
M  V30 2831 H     -26.8290    22.6220   -33.1040 0 CHG=0 CFG=0
M  V30 2832 H     -28.0140    23.6530   -33.0270 0 CHG=0 CFG=0
M  V30 2833 H     -28.0530    22.3440   -32.1570 0 CHG=0 CFG=0
M  V30 2834 N     -31.1060    21.2200   -35.9760 0 CHG=0 CFG=0
M  V30 2835 C     -31.8730    20.2140   -36.7050 0 CHG=0 CFG=2
M  V30 2836 C     -31.3880    20.0430   -38.1460 0 CHG=0 CFG=0
M  V30 2837 O     -30.8020    20.9510   -38.7450 0 CHG=0 CFG=0
M  V30 2838 C     -33.3940    20.5150   -36.6730 0 CHG=0 CFG=0
M  V30 2839 C     -34.1050    19.7850   -37.7870 0 CHG=0 CFG=0
M  V30 2840 C     -33.9920    20.1310   -35.3130 0 CHG=0 CFG=0
M  V30 2841 H     -30.9530    21.9430   -36.4150 0 CHG=0 CFG=0
M  V30 2842 H     -31.7430    19.3530   -36.2560 0 CHG=0 CFG=0
M  V30 2843 H     -33.5320    21.4760   -36.8040 0 CHG=0 CFG=0
M  V30 2844 H     -35.0420    19.9880   -37.7450 0 CHG=0 CFG=0
M  V30 2845 H     -33.7440    20.0740   -38.6290 0 CHG=0 CFG=0
M  V30 2846 H     -33.9680    18.8410   -37.6780 0 CHG=0 CFG=0
M  V30 2847 H     -34.9320    20.3260   -35.3190 0 CHG=0 CFG=0
M  V30 2848 H     -33.8540    19.1920   -35.1660 0 CHG=0 CFG=0
M  V30 2849 H     -33.5560    20.6390   -34.6260 0 CHG=0 CFG=0
M  V30 2850 N     -31.6160    18.8400   -38.6630 0 CHG=0 CFG=0
M  V30 2851 C     -31.2550    18.4680   -40.0200 0 CHG=0 CFG=2
M  V30 2852 C     -32.2500    17.4070   -40.4810 0 CHG=0 CFG=0
M  V30 2853 O     -32.1290    16.2470   -40.0950 0 CHG=0 CFG=0
M  V30 2854 C     -29.8490    17.8670   -40.0320 0 CHG=0 CFG=0
M  V30 2855 S     -28.4720    18.9510   -39.6660 0 CHG=0 CFG=0
M  V30 2856 H     -31.9930    18.2020   -38.2270 0 CHG=0 CFG=0
M  V30 2857 H     -31.2930    19.2430   -40.6180 0 CHG=0 CFG=0
M  V30 2858 H     -29.8250    17.1500   -39.3780 0 CHG=0 CFG=0
M  V30 2859 H     -29.6910    17.4960   -40.9140 0 CHG=0 CFG=0
M  V30 2860 H     -28.4344    19.9451   -40.5638 0 CHG=0 CFG=0
M  V30 2861 N     -33.2300    17.7890   -41.2990 0 CHG=0 CFG=0
M  V30 2862 C     -34.3170    16.8670   -41.6530 0 CHG=0 CFG=2
M  V30 2863 C     -33.8910    15.7320   -42.6050 0 CHG=0 CFG=0
M  V30 2864 O     -34.7310    14.9580   -43.0790 0 CHG=0 CFG=0
M  V30 2865 C     -35.5280    17.6280   -42.1990 0 CHG=0 CFG=0
M  V30 2866 C     -36.3910    18.3000   -41.1120 0 CHG=0 CFG=0
M  V30 2867 C     -35.9350    19.7280   -40.7810 0 CHG=0 CFG=0
M  V30 2868 C     -36.9220    20.4360   -39.8470 0 CHG=0 CFG=0
M  V30 2869 N     -36.6440    21.8960   -39.7200 0 CHG=1 CFG=0
M  V30 2870 H     -33.2910    18.5670   -41.6600 0 CHG=0 CFG=0
M  V30 2871 H     -34.6130    16.4340   -40.8250 0 CHG=0 CFG=0
M  V30 2872 H     -35.2140    18.3240   -42.7990 0 CHG=0 CFG=0
M  V30 2873 H     -36.0940    17.0080   -42.6850 0 CHG=0 CFG=0
M  V30 2874 H     -37.3100    18.3430   -41.4200 0 CHG=0 CFG=0
M  V30 2875 H     -36.3390    17.7730   -40.2980 0 CHG=0 CFG=0
M  V30 2876 H     -35.0710    19.6940   -40.3410 0 CHG=0 CFG=0
M  V30 2877 H     -35.8730    20.2420   -41.6020 0 CHG=0 CFG=0
M  V30 2878 H     -37.8210    20.3300   -40.1970 0 CHG=0 CFG=0
M  V30 2879 H     -36.8610    20.0410   -38.9630 0 CHG=0 CFG=0
M  V30 2880 H     -37.2360    22.2720   -39.1720 0 CHG=0 CFG=0
M  V30 2881 H     -35.8260    22.0230   -39.3940 0 CHG=0 CFG=0
M  V30 2882 H     -36.7010    22.2870   -40.5180 0 CHG=0 CFG=0
M  V30 2883 N     -32.5880    15.6620   -42.8870 0 CHG=0 CFG=0
M  V30 2884 C     -31.9340    14.4480   -43.3820 0 CHG=0 CFG=2
M  V30 2885 C     -30.9020    14.1060   -42.3010 0 CHG=0 CFG=0
M  V30 2886 O     -29.6990    14.0500   -42.5640 0 CHG=0 CFG=0
M  V30 2887 C     -31.2620    14.6800   -44.7540 0 CHG=0 CFG=0
M  V30 2888 C     -31.0710    13.4330   -45.5760 0 CHG=0 CFG=0
M  V30 2889 N     -32.1210    12.6310   -45.9760 0 CHG=0 CFG=0
M  V30 2890 C     -29.9530    12.8700   -46.1000 0 CHG=0 CFG=0
M  V30 2891 C     -31.6570    11.6220   -46.6920 0 CHG=0 CFG=0
M  V30 2892 N     -30.3440    11.7430   -46.7840 0 CHG=1 CFG=0
M  V30 2893 H     -32.0470    16.3250   -42.7960 0 CHG=0 CFG=0
M  V30 2894 H     -32.5820    13.7170   -43.4570 0 CHG=0 CFG=0
M  V30 2895 H     -31.8110    15.2910   -45.2690 0 CHG=0 CFG=0
M  V30 2896 H     -30.3860    15.0720   -44.6070 0 CHG=0 CFG=0
M  V30 2897 H     -32.9490    12.7630   -45.7810 0 CHG=0 CFG=0
M  V30 2898 H     -29.0830    13.1840   -46.0060 0 CHG=0 CFG=0
M  V30 2899 H     -32.1680    10.9430   -47.0700 0 CHG=0 CFG=0
M  V30 2900 H     -29.8200    11.2050   -47.2020 0 CHG=0 CFG=0
M  V30 2901 N     -31.3950    13.9040   -41.0760 0 CHG=0 CFG=0
M  V30 2902 C     -30.5450    13.7590   -39.8940 0 CHG=0 CFG=2
M  V30 2903 C     -31.3880    13.6570   -38.6090 0 CHG=0 CFG=0
M  V30 2904 O     -32.6180    13.5140   -38.6600 0 CHG=0 CFG=0
M  V30 2905 C     -29.6300    14.9850   -39.7810 0 CHG=0 CFG=0
M  V30 2906 S     -27.8320    14.8060   -40.0840 0 CHG=0 CFG=0
M  V30 2907 H     -32.2350    13.8460   -40.9020 0 CHG=0 CFG=0
M  V30 2908 H     -29.9910    12.9540   -39.9770 0 CHG=0 CFG=0
M  V30 2909 H     -29.9510    15.6480   -40.4130 0 CHG=0 CFG=0
M  V30 2910 H     -29.7250    15.3390   -38.8830 0 CHG=0 CFG=0
M  V30 2911 H     -27.3040    15.8750   -39.9460 0 CHG=0 CFG=0
M  V30 2912 N     -30.7060    13.7440   -37.4650 0 CHG=0 CFG=0
M  V30 2913 C     -31.3430    13.7730   -36.1590 0 CHG=0 CFG=0
M  V30 2914 C     -31.2760    15.1630   -35.5490 0 CHG=0 CFG=0
M  V30 2915 O     -31.0780    16.1460   -36.2630 0 CHG=0 CFG=0
M  V30 2916 H     -29.8480    13.7880   -37.4260 0 CHG=0 CFG=0
M  V30 2917 H     -32.2750    13.5140   -36.2440 0 CHG=0 CFG=0
M  V30 2918 H     -30.8990    13.1490   -35.5640 0 CHG=0 CFG=0
M  V30 2919 N     -31.4250    15.2510   -34.2280 0 CHG=0 CFG=0
M  V30 2920 C     -31.5270    16.5490   -33.5550 0 CHG=0 CFG=2
M  V30 2921 C     -30.5190    16.6830   -32.4070 0 CHG=0 CFG=0
M  V30 2922 O     -30.4840    15.8520   -31.5070 0 CHG=0 CFG=0
M  V30 2923 C     -32.9640    16.7510   -33.0630 0 CHG=0 CFG=0
M  V30 2924 C     -33.9960    16.1030   -34.0000 0 CHG=0 CFG=0
M  V30 2925 C     -35.4120    16.6470   -33.8380 0 CHG=0 CFG=0
M  V30 2926 O     -35.6870    17.4490   -32.9400 0 CHG=0 CFG=0
M  V30 2927 N     -36.3180    16.2140   -34.7190 0 CHG=0 CFG=0
M  V30 2928 H     -31.4710    14.5760   -33.6980 0 CHG=0 CFG=0
M  V30 2929 H     -31.3330    17.2560   -34.2050 0 CHG=0 CFG=0
M  V30 2930 H     -33.0580    16.3490   -32.1850 0 CHG=0 CFG=0
M  V30 2931 H     -33.1530    17.7010   -33.0160 0 CHG=0 CFG=0
M  V30 2932 H     -33.7240    16.2570   -34.9180 0 CHG=0 CFG=0
M  V30 2933 H     -34.0240    15.1490   -33.8220 0 CHG=0 CFG=0
M  V30 2934 H     -36.0890    15.6590   -35.3340 0 CHG=0 CFG=0
M  V30 2935 H     -37.1310    16.4900   -34.6710 0 CHG=0 CFG=0
M  V30 2936 N     -29.7110    17.7440   -32.4510 0 CHG=0 CFG=0
M  V30 2937 C     -28.5770    17.9280   -31.5420 0 CHG=0 CFG=2
M  V30 2938 C     -28.7770    19.0940   -30.5570 0 CHG=0 CFG=0
M  V30 2939 O     -28.9150    20.2320   -30.9600 0 CHG=0 CFG=0
M  V30 2940 C     -27.3130    18.1750   -32.3820 0 CHG=0 CFG=0
M  V30 2941 C     -26.0150    18.2360   -31.5910 0 CHG=0 CFG=0
M  V30 2942 C     -24.8210    18.6350   -32.4720 0 CHG=0 CFG=0
M  V30 2943 C     -23.5540    18.8530   -31.6340 0 CHG=0 CFG=0
M  V30 2944 N     -22.3330    19.1650   -32.4620 0 CHG=1 CFG=0
M  V30 2945 H     -29.8020    18.3870   -33.0150 0 CHG=0 CFG=0
M  V30 2946 H     -28.4440    17.1070   -31.0230 0 CHG=0 CFG=0
M  V30 2947 H     -27.2280    17.4570   -33.0290 0 CHG=0 CFG=0
M  V30 2948 H     -27.4130    19.0210   -32.8470 0 CHG=0 CFG=0
M  V30 2949 H     -26.1040    18.8960   -30.8850 0 CHG=0 CFG=0
M  V30 2950 H     -25.8330    17.3630   -31.2110 0 CHG=0 CFG=0
M  V30 2951 H     -24.6440    17.9270   -33.1110 0 CHG=0 CFG=0
M  V30 2952 H     -25.0260    19.4620   -32.9350 0 CHG=0 CFG=0
M  V30 2953 H     -23.7020    19.5980   -31.0300 0 CHG=0 CFG=0
M  V30 2954 H     -23.3710    18.0480   -31.1260 0 CHG=0 CFG=0
M  V30 2955 H     -21.6280    19.2830   -31.9320 0 CHG=0 CFG=0
M  V30 2956 H     -22.1660    18.4930   -33.0210 0 CHG=0 CFG=0
M  V30 2957 H     -22.4680    19.9080   -32.9340 0 CHG=0 CFG=0
M  V30 2958 N     -28.7600    18.8270   -29.2610 0 CHG=0 CFG=0
M  V30 2959 C     -28.8480    19.9100   -28.2900 0 CHG=0 CFG=2
M  V30 2960 C     -27.4750    20.3920   -27.8660 0 CHG=0 CFG=0
M  V30 2961 O     -26.6130    19.5890   -27.5080 0 CHG=0 CFG=0
M  V30 2962 C     -29.6030    19.4920   -27.0280 0 CHG=0 CFG=2
M  V30 2963 O     -30.9970    19.3950   -27.3260 0 CHG=0 CFG=0
M  V30 2964 C     -29.4100    20.5170   -25.9190 0 CHG=0 CFG=0
M  V30 2965 H     -28.6990    18.0400   -28.9200 0 CHG=0 CFG=0
M  V30 2966 H     -29.3240    20.6640   -28.6950 0 CHG=0 CFG=0
M  V30 2967 H     -29.2750    18.6340   -26.7190 0 CHG=0 CFG=0
M  V30 2968 H     -31.4120    19.1720   -26.6550 0 CHG=0 CFG=0
M  V30 2969 H     -29.8890    20.2430   -25.1340 0 CHG=0 CFG=0
M  V30 2970 H     -28.4780    20.5960   -25.7050 0 CHG=0 CFG=0
M  V30 2971 H     -29.7390    21.3730   -26.2030 0 CHG=0 CFG=0
M  V30 2972 N     -27.3000    21.7140   -27.8900 0 CHG=0 CFG=0
M  V30 2973 C     -26.0590    22.3830   -27.4920 0 CHG=0 CFG=2
M  V30 2974 C     -26.3640    23.3500   -26.3570 0 CHG=0 CFG=0
M  V30 2975 O     -27.4320    23.9560   -26.3370 0 CHG=0 CFG=0
M  V30 2976 C     -25.4750    23.2180   -28.6570 0 CHG=0 CFG=2
M  V30 2977 O     -25.5730    22.4740   -29.8760 0 CHG=0 CFG=0
M  V30 2978 C     -24.0070    23.6140   -28.3910 0 CHG=0 CFG=0
M  V30 2979 H     -27.9100    22.2640   -28.1440 0 CHG=0 CFG=0
M  V30 2980 H     -25.3950    21.7270   -27.1940 0 CHG=0 CFG=0
M  V30 2981 H     -25.9910    24.0340   -28.7460 0 CHG=0 CFG=0
M  V30 2982 H     -25.1530    21.7730   -29.8100 0 CHG=0 CFG=0
M  V30 2983 H     -23.6680    24.1300   -29.1260 0 CHG=0 CFG=0
M  V30 2984 H     -23.9500    24.1380   -27.5890 0 CHG=0 CFG=0
M  V30 2985 H     -23.4690    22.8260   -28.2880 0 CHG=0 CFG=0
M  V30 2986 N     -25.4230    23.5060   -25.4320 0 CHG=0 CFG=0
M  V30 2987 C     -25.5600    24.4550   -24.3400 0 CHG=0 CFG=2
M  V30 2988 C     -24.3450    25.3910   -24.3640 0 CHG=0 CFG=0
M  V30 2989 O     -23.2250    24.9410   -24.4640 0 CHG=0 CFG=0
M  V30 2990 C     -25.6270    23.7060   -22.9650 0 CHG=0 CFG=2
M  V30 2991 O     -26.6810    22.7430   -22.9940 0 CHG=0 CFG=0
M  V30 2992 C     -25.8770    24.6540   -21.8190 0 CHG=0 CFG=0
M  V30 2993 H     -24.6850    23.0660   -25.4170 0 CHG=0 CFG=0
M  V30 2994 H     -26.3750    24.9860   -24.4550 0 CHG=0 CFG=0
M  V30 2995 H     -24.7840    23.2530   -22.8060 0 CHG=0 CFG=0
M  V30 2996 H     -27.3980    23.1160   -23.1320 0 CHG=0 CFG=0
M  V30 2997 H     -25.9130    24.1670   -20.9920 0 CHG=0 CFG=0
M  V30 2998 H     -25.1700    25.3020   -21.7680 0 CHG=0 CFG=0
M  V30 2999 H     -26.7110    25.1120   -21.9470 0 CHG=0 CFG=0
M  V30 3000 N     -24.5630    26.6910   -24.2390 0 CHG=0 CFG=0
M  V30 3001 C     -23.4900    27.6410   -24.3760 0 CHG=0 CFG=2
M  V30 3002 C     -23.4000    28.5310   -23.1420 0 CHG=0 CFG=0
M  V30 3003 O     -24.4240    28.9620   -22.6250 0 CHG=0 CFG=0
M  V30 3004 C     -23.7330    28.4980   -25.6160 0 CHG=0 CFG=0
M  V30 3005 C     -23.8080    27.7770   -26.9710 0 CHG=0 CFG=0
M  V30 3006 C     -24.4410    28.6770   -27.9950 0 CHG=0 CFG=0
M  V30 3007 C     -22.4470    27.3650   -27.4950 0 CHG=0 CFG=0
M  V30 3008 H     -25.3300    27.0440   -24.0750 0 CHG=0 CFG=0
M  V30 3009 H     -22.6390    27.1660   -24.4840 0 CHG=0 CFG=0
M  V30 3010 H     -24.5740    28.9660   -25.4960 0 CHG=0 CFG=0
M  V30 3011 H     -23.0140    29.1460   -25.6780 0 CHG=0 CFG=0
M  V30 3012 H     -24.3560    26.9810   -26.8830 0 CHG=0 CFG=0
M  V30 3013 H     -24.4810    28.2140   -28.8350 0 CHG=0 CFG=0
M  V30 3014 H     -25.3260    28.9060   -27.7040 0 CHG=0 CFG=0
M  V30 3015 H     -23.9090    29.4710   -28.0830 0 CHG=0 CFG=0
M  V30 3016 H     -22.5580    26.9220   -28.3390 0 CHG=0 CFG=0
M  V30 3017 H     -21.9040    28.1490   -27.6050 0 CHG=0 CFG=0
M  V30 3018 H     -22.0370    26.7690   -26.8640 0 CHG=0 CFG=0
M  V30 3019 N     -22.1650    28.8280   -22.7090 0 CHG=0 CFG=0
M  V30 3020 C     -21.9020    29.5920   -21.5030 0 CHG=0 CFG=2
M  V30 3021 C     -20.7870    30.6040   -21.7010 0 CHG=0 CFG=0
M  V30 3022 O     -20.0210    30.5140   -22.6440 0 CHG=0 CFG=0
M  V30 3023 C     -21.4330    28.6500   -20.3780 0 CHG=0 CFG=2
M  V30 3024 O     -20.2360    27.9680   -20.7910 0 CHG=0 CFG=0
M  V30 3025 C     -22.5200    27.6240   -20.0570 0 CHG=0 CFG=0
M  V30 3026 H     -21.4490    28.5850   -23.1180 0 CHG=0 CFG=0
M  V30 3027 H     -22.7140    30.0590   -21.2140 0 CHG=0 CFG=0
M  V30 3028 H     -21.2520    29.1670   -19.5780 0 CHG=0 CFG=0
M  V30 3029 H     -20.3830    27.5280   -21.4670 0 CHG=0 CFG=0
M  V30 3030 H     -22.2230    27.0400   -19.3560 0 CHG=0 CFG=0
M  V30 3031 H     -23.3200    28.0720   -19.7720 0 CHG=0 CFG=0
M  V30 3032 H     -22.7170    27.1000   -20.8370 0 CHG=0 CFG=0
M  V30 3033 N     -20.6330    31.5200   -20.7610 0 CHG=0 CFG=0
M  V30 3034 C     -19.7560    32.6430   -20.9820 0 CHG=0 CFG=0
M  V30 3035 C     -20.2640    33.4840   -22.1750 0 CHG=0 CFG=0
M  V30 3036 O     -21.4720    33.5570   -22.4930 0 CHG=0 CFG=0
M  V30 3037 H     -21.0220    31.5120   -19.9940 0 CHG=0 CFG=0
M  V30 3038 H     -19.7290    33.2030   -20.1910 0 CHG=0 CFG=0
M  V30 3039 H     -18.8590    32.3300   -21.1770 0 CHG=0 CFG=0
M  V30 3040 N     -19.3260    34.1070   -22.8660 0 CHG=0 CFG=0
M  V30 3041 C     -19.6430    35.0950   -23.8580 0 CHG=0 CFG=2
M  V30 3042 C     -20.6710    34.5930   -24.8780 0 CHG=0 CFG=0
M  V30 3043 O     -21.5720    35.3400   -25.2350 0 CHG=0 CFG=0
M  V30 3044 C     -18.3380    35.6170   -24.5300 0 CHG=0 CFG=0
M  V30 3045 C     -18.6650    36.4820   -25.6960 0 CHG=0 CFG=0
M  V30 3046 C     -17.5310    36.4120   -23.5210 0 CHG=0 CFG=0
M  V30 3047 H     -18.4820    33.9670   -22.7720 0 CHG=0 CFG=0
M  V30 3048 H     -20.0500    35.8600   -23.4000 0 CHG=0 CFG=0
M  V30 3049 H     -17.7980    34.8600   -24.8400 0 CHG=0 CFG=0
M  V30 3050 H     -17.8480    36.7920   -26.0940 0 CHG=0 CFG=0
M  V30 3051 H     -19.1670    35.9700   -26.3340 0 CHG=0 CFG=0
M  V30 3052 H     -19.1860    37.2300   -25.3930 0 CHG=0 CFG=0
M  V30 3053 H     -16.7290    36.7290   -23.9430 0 CHG=0 CFG=0
M  V30 3054 H     -18.0580    37.1550   -23.2170 0 CHG=0 CFG=0
M  V30 3055 H     -17.3090    35.8430   -22.7800 0 CHG=0 CFG=0
M  V30 3056 N     -20.5640    33.3520   -25.3390 0 CHG=0 CFG=0
M  V30 3057 C     -21.4710    32.8900   -26.4010 0 CHG=0 CFG=2
M  V30 3058 C     -22.9090    32.6770   -25.8980 0 CHG=0 CFG=0
M  V30 3059 O     -23.8200    32.3780   -26.6790 0 CHG=0 CFG=0
M  V30 3060 C     -20.9730    31.5620   -27.0470 0 CHG=0 CFG=0
M  V30 3061 C     -19.6230    31.6310   -27.7790 0 CHG=0 CFG=0
M  V30 3062 C     -19.4900    30.5620   -28.8600 0 CHG=0 CFG=0
M  V30 3063 O     -19.0820    29.4110   -28.5160 0 CHG=0 CFG=0
M  V30 3064 O     -19.8050    30.8550   -30.0550 0 CHG=0 CFG=0
M  V30 3065 H     -19.9940    32.7670   -25.0670 0 CHG=0 CFG=0
M  V30 3066 H     -21.5000    33.5710   -27.1050 0 CHG=0 CFG=0
M  V30 3067 H     -20.8880    30.8960   -26.3470 0 CHG=0 CFG=0
M  V30 3068 H     -21.6360    31.2690   -27.6910 0 CHG=0 CFG=0
M  V30 3069 H     -19.5360    32.4990   -28.2020 0 CHG=0 CFG=0
M  V30 3070 H     -18.9080    31.5000   -27.1370 0 CHG=0 CFG=0
M  V30 3071 N     -23.1190    32.7330   -24.5900 0 CHG=0 CFG=0
M  V30 3072 C     -24.4900    32.6580   -24.0590 0 CHG=0 CFG=2
M  V30 3073 C     -25.2660    33.9450   -24.3910 0 CHG=0 CFG=0
M  V30 3074 O     -26.4940    33.9320   -24.5470 0 CHG=0 CFG=0
M  V30 3075 C     -24.4670    32.4120   -22.5310 0 CHG=0 CFG=0
M  V30 3076 H     -22.5040    32.8120   -23.9940 0 CHG=0 CFG=0
M  V30 3077 H     -24.9550    31.9050   -24.4800 0 CHG=0 CFG=0
M  V30 3078 H     -25.3700    32.3680   -22.2090 0 CHG=0 CFG=0
M  V30 3079 H     -24.0140    31.5840   -22.3550 0 CHG=0 CFG=0
M  V30 3080 H     -24.0030    33.1370   -22.1050 0 CHG=0 CFG=0
M  V30 3081 N     -24.5470    35.0590   -24.4870 0 CHG=0 CFG=0
M  V30 3082 C     -25.2100    36.3120   -24.7670 0 CHG=0 CFG=2
M  V30 3083 C     -24.9090    36.9140   -26.1500 0 CHG=0 CFG=0
M  V30 3084 O     -25.5840    37.8430   -26.5480 0 CHG=0 CFG=0
M  V30 3085 C     -24.9210    37.3430   -23.6630 0 CHG=0 CFG=0
M  V30 3086 C     -25.3450    36.7920   -22.2930 0 CHG=0 CFG=0
M  V30 3087 C     -23.4730    37.7450   -23.6510 0 CHG=0 CFG=0
M  V30 3088 H     -23.6930    35.1100   -24.3960 0 CHG=0 CFG=0
M  V30 3089 H     -26.1750    36.1430   -24.7440 0 CHG=0 CFG=0
M  V30 3090 H     -25.4520    38.1480   -23.8390 0 CHG=0 CFG=0
M  V30 3091 H     -25.1570    37.4510   -21.6210 0 CHG=0 CFG=0
M  V30 3092 H     -26.2860    36.6020   -22.3110 0 CHG=0 CFG=0
M  V30 3093 H     -24.8520    35.9890   -22.1140 0 CHG=0 CFG=0
M  V30 3094 H     -23.3340    38.3870   -22.9510 0 CHG=0 CFG=0
M  V30 3095 H     -22.9340    36.9660   -23.4930 0 CHG=0 CFG=0
M  V30 3096 H     -23.2490    38.1320   -24.5000 0 CHG=0 CFG=0
M  V30 3097 N     -23.9230    36.3800   -26.8660 0 CHG=0 CFG=0
M  V30 3098 C     -23.4120    37.0050   -28.0900 0 CHG=0 CFG=2
M  V30 3099 C     -23.6590    36.0080   -29.2000 0 CHG=0 CFG=0
M  V30 3100 O     -23.3560    34.8490   -29.0090 0 CHG=0 CFG=0
M  V30 3101 C     -21.9030    37.3000   -27.9880 0 CHG=0 CFG=0
M  V30 3102 C     -21.4830    38.5830   -27.2890 0 CHG=0 CFG=0
M  V30 3103 S     -19.7010    39.0600   -27.6090 0 CHG=0 CFG=0
M  V30 3104 C     -19.8920    39.9200   -29.1470 0 CHG=0 CFG=0
M  V30 3105 H     -23.5250    35.6450   -26.6620 0 CHG=0 CFG=0
M  V30 3106 H     -23.8940    37.8390   -28.2710 0 CHG=0 CFG=0
M  V30 3107 H     -21.4860    36.5670   -27.5100 0 CHG=0 CFG=0
M  V30 3108 H     -21.5430    37.3370   -28.8880 0 CHG=0 CFG=0
M  V30 3109 H     -22.0460    39.3090   -27.6010 0 CHG=0 CFG=0
M  V30 3110 H     -21.5930    38.4690   -26.3320 0 CHG=0 CFG=0
M  V30 3111 H     -19.0320    40.2300   -29.4400 0 CHG=0 CFG=0
M  V30 3112 H     -20.2620    39.3180   -29.7970 0 CHG=0 CFG=0
M  V30 3113 H     -20.4830    40.6660   -29.0170 0 CHG=0 CFG=0
M  V30 3114 N     -24.2760    36.4290   -30.3150 0 CHG=0 CFG=0
M  V30 3115 C     -24.6000    35.5270   -31.4290 0 CHG=0 CFG=2
M  V30 3116 C     -24.2420    36.2360   -32.7210 0 CHG=0 CFG=0
M  V30 3117 O     -24.6650    37.3670   -32.9410 0 CHG=0 CFG=0
M  V30 3118 C     -26.1010    35.1770   -31.4670 0 CHG=0 CFG=0
M  V30 3119 C     -26.5030    34.1470   -32.5220 0 CHG=0 CFG=0
M  V30 3120 C     -26.5040    32.8110   -32.2390 0 CHG=0 CFG=0
M  V30 3121 C     -26.8670    34.5190   -33.7830 0 CHG=0 CFG=0
M  V30 3122 C     -26.8490    31.8720   -33.1740 0 CHG=0 CFG=0
M  V30 3123 C     -27.2130    33.5790   -34.7500 0 CHG=0 CFG=0
M  V30 3124 C     -27.2100    32.2560   -34.4290 0 CHG=0 CFG=0
M  V30 3125 O     -27.5690    31.2900   -35.3580 0 CHG=0 CFG=0
M  V30 3126 H     -24.5190    37.2420   -30.4510 0 CHG=0 CFG=0
M  V30 3127 H     -24.0770    34.7010   -31.3590 0 CHG=0 CFG=0
M  V30 3128 H     -26.3560    34.8220   -30.6010 0 CHG=0 CFG=0
M  V30 3129 H     -26.6020    35.9880   -31.6460 0 CHG=0 CFG=0
M  V30 3130 H     -26.2590    32.5300   -31.3870 0 CHG=0 CFG=0
M  V30 3131 H     -26.8690    35.4220   -34.0070 0 CHG=0 CFG=0
M  V30 3132 H     -26.8440    30.9690   -32.9480 0 CHG=0 CFG=0
M  V30 3133 H     -27.4640    33.8540   -35.6020 0 CHG=0 CFG=0
M  V30 3134 H     -27.0670    31.3240   -36.0060 0 CHG=0 CFG=0
M  V30 3135 N     -23.4650    35.5870   -33.5790 0 CHG=0 CFG=0
M  V30 3136 C     -23.1970    36.1720   -34.8660 0 CHG=0 CFG=2
M  V30 3137 C     -23.9440    35.4240   -35.9280 0 CHG=0 CFG=0
M  V30 3138 O     -23.7550    34.2300   -36.0580 0 CHG=0 CFG=0
M  V30 3139 C     -21.7150    36.1270   -35.1560 0 CHG=0 CFG=0
M  V30 3140 C     -21.3520    36.5240   -36.5840 0 CHG=0 CFG=0
M  V30 3141 S     -21.5290    38.2620   -36.9680 0 CHG=0 CFG=0
M  V30 3142 C     -19.8640    38.8080   -36.7180 0 CHG=0 CFG=0
M  V30 3143 H     -23.0920    34.8250   -33.4380 0 CHG=0 CFG=0
M  V30 3144 H     -23.4840    37.1090   -34.8640 0 CHG=0 CFG=0
M  V30 3145 H     -21.2610    36.7380   -34.5550 0 CHG=0 CFG=0
M  V30 3146 H     -21.3950    35.2230   -35.0090 0 CHG=0 CFG=0
M  V30 3147 H     -20.4260    36.2840   -36.7440 0 CHG=0 CFG=0
M  V30 3148 H     -21.9240    36.0320   -37.1940 0 CHG=0 CFG=0
M  V30 3149 H     -19.8150    39.7500   -36.8940 0 CHG=0 CFG=0
M  V30 3150 H     -19.6110    38.6310   -35.8090 0 CHG=0 CFG=0
M  V30 3151 H     -19.2860    38.3310   -37.3180 0 CHG=0 CFG=0
M  V30 3152 N     -24.7970    36.1150   -36.6950 0 CHG=0 CFG=0
M  V30 3153 C     -25.4330    35.5020   -37.8570 0 CHG=0 CFG=0
M  V30 3154 C     -26.8290    35.9820   -38.2070 0 CHG=0 CFG=0
M  V30 3155 O     -27.3960    35.6460   -39.2650 0 CHG=0 CFG=0
M  V30 3156 H     -25.0190    36.9350   -36.5620 0 CHG=0 CFG=0
M  V30 3157 H     -24.8700    35.6530   -38.6320 0 CHG=0 CFG=0
M  V30 3158 H     -25.4810    34.5440   -37.7120 0 CHG=0 CFG=0
M  V30 3159 N     -27.4070    36.7620   -37.3120 0 CHG=0 CFG=0
M  V30 3160 C     -28.6570    37.4410   -37.6170 0 CHG=0 CFG=2
M  V30 3161 C     -28.8270    38.5510   -36.6060 0 CHG=0 CFG=0
M  V30 3162 O     -28.2830    38.4610   -35.4750 0 CHG=0 CFG=0
M  V30 3163 C     -29.8760    36.5030   -37.5420 0 CHG=0 CFG=2
M  V30 3164 O     -31.0800    37.2640   -37.6780 0 CHG=0 CFG=0
M  V30 3165 C     -29.9780    35.8110   -36.1820 0 CHG=0 CFG=0
M  V30 3166 H     -27.0990    36.9160   -36.5230 0 CHG=0 CFG=0
M  V30 3167 H     -28.6130    37.8340   -38.5140 0 CHG=0 CFG=0
M  V30 3168 H     -29.8260    35.8300   -38.2390 0 CHG=0 CFG=0
M  V30 3169 H     -31.7310    36.7680   -37.6390 0 CHG=0 CFG=0
M  V30 3170 H     -30.7450    35.2340   -36.1640 0 CHG=0 CFG=0
M  V30 3171 H     -29.1900    35.2880   -36.0200 0 CHG=0 CFG=0
M  V30 3172 H     -30.0650    36.4670   -35.4860 0 CHG=0 CFG=0
M  V30 3173 N     -29.5630    39.5860   -37.0010 0 CHG=0 CFG=0
M  V30 3174 C     -29.7470    40.7570   -36.1500 0 CHG=0 CFG=2
M  V30 3175 C     -31.0000    40.6190   -35.3120 0 CHG=0 CFG=0
M  V30 3176 O     -31.2030    41.3690   -34.3720 0 CHG=0 CFG=0
M  V30 3177 C     -29.8940    42.0160   -37.0070 0 CHG=0 CFG=0
M  V30 3178 C     -28.7320    42.4610   -37.9110 0 CHG=0 CFG=0
M  V30 3179 C     -29.1570    43.6490   -38.7730 0 CHG=0 CFG=0
M  V30 3180 C     -27.5590    42.8660   -37.0710 0 CHG=0 CFG=0
M  V30 3181 H     -29.9660    39.6340   -37.7590 0 CHG=0 CFG=0
M  V30 3182 H     -28.9760    40.8640   -35.5550 0 CHG=0 CFG=0
M  V30 3183 H     -30.6610    41.8870   -37.5860 0 CHG=0 CFG=0
M  V30 3184 H     -30.0770    42.7570   -36.4080 0 CHG=0 CFG=0
M  V30 3185 H     -28.4660    41.7300   -38.4910 0 CHG=0 CFG=0
M  V30 3186 H     -28.4190    43.9110   -39.3290 0 CHG=0 CFG=0
M  V30 3187 H     -29.9020    43.3880   -39.3190 0 CHG=0 CFG=0
M  V30 3188 H     -29.4090    44.3760   -38.1990 0 CHG=0 CFG=0
M  V30 3189 H     -26.8420    43.1410   -37.6470 0 CHG=0 CFG=0
M  V30 3190 H     -27.8200    43.5940   -36.5010 0 CHG=0 CFG=0
M  V30 3191 H     -27.2830    42.1160   -36.5380 0 CHG=0 CFG=0
M  V30 3192 N     -31.8570    39.6770   -35.6940 0 CHG=0 CFG=0
M  V30 3193 C     -33.1970    39.5270   -35.1120 0 CHG=0 CFG=2
M  V30 3194 C     -33.2940    38.4110   -34.0260 0 CHG=0 CFG=0
M  V30 3195 O     -33.2200    37.2260   -34.3350 0 CHG=0 CFG=0
M  V30 3196 C     -34.1550    39.2110   -36.2640 0 CHG=0 CFG=0
M  V30 3197 O     -35.3410    38.6420   -35.7740 0 CHG=0 CFG=0
M  V30 3198 H     -31.6840    39.0960   -36.3040 0 CHG=0 CFG=0
M  V30 3199 H     -33.4710    40.3760   -34.7070 0 CHG=0 CFG=0
M  V30 3200 H     -34.3680    40.0320   -36.7340 0 CHG=0 CFG=0
M  V30 3201 H     -33.7290    38.5830   -36.8680 0 CHG=0 CFG=0
M  V30 3202 H     -35.8500    38.4750   -36.3950 0 CHG=0 CFG=0
M  V30 3203 N     -33.4510    38.7820   -32.7630 0 CHG=0 CFG=0
M  V30 3204 C     -33.6770    37.8130   -31.6880 0 CHG=0 CFG=2
M  V30 3205 C     -34.8750    36.8920   -31.9970 0 CHG=0 CFG=0
M  V30 3206 O     -34.8570    35.7170   -31.6350 0 CHG=0 CFG=0
M  V30 3207 C     -33.9510    38.5500   -30.3960 0 CHG=0 CFG=0
M  V30 3208 C     -33.8060    37.7550   -29.1220 0 CHG=0 CFG=0
M  V30 3209 C     -33.0960    36.5540   -29.0870 0 CHG=0 CFG=0
M  V30 3210 C     -34.3650    38.2280   -27.9300 0 CHG=0 CFG=0
M  V30 3211 C     -32.9610    35.8460   -27.9100 0 CHG=0 CFG=0
M  V30 3212 C     -34.2430    37.5320   -26.7640 0 CHG=0 CFG=0
M  V30 3213 C     -33.5430    36.3420   -26.7500 0 CHG=0 CFG=0
M  V30 3214 O     -33.4200    35.6560   -25.5640 0 CHG=0 CFG=0
M  V30 3215 H     -33.4310    39.5990   -32.4940 0 CHG=0 CFG=0
M  V30 3216 H     -32.8780    37.2590   -31.5700 0 CHG=0 CFG=0
M  V30 3217 H     -33.3370    39.2990   -30.3390 0 CHG=0 CFG=0
M  V30 3218 H     -34.8610    38.8840   -30.4250 0 CHG=0 CFG=0
M  V30 3219 H     -32.7120    36.2260   -29.8670 0 CHG=0 CFG=0
M  V30 3220 H     -34.8390    39.0270   -27.9360 0 CHG=0 CFG=0
M  V30 3221 H     -32.4920    35.0430   -27.8960 0 CHG=0 CFG=0
M  V30 3222 H     -34.6250    37.8590   -25.9810 0 CHG=0 CFG=0
M  V30 3223 H     -34.1620    35.4510   -25.2800 0 CHG=0 CFG=0
M  V30 3224 N     -35.9120    37.4120   -32.6580 0 CHG=0 CFG=0
M  V30 3225 C     -37.0510    36.5590   -32.9920 0 CHG=0 CFG=2
M  V30 3226 C     -36.5410    35.4890   -33.9170 0 CHG=0 CFG=0
M  V30 3227 O     -36.7360    34.3160   -33.6730 0 CHG=0 CFG=0
M  V30 3228 C     -38.2330    37.3160   -33.6530 0 CHG=0 CFG=0
M  V30 3229 C     -39.0650    38.1110   -32.6450 0 CHG=0 CFG=0
M  V30 3230 O     -38.9000    37.8920   -31.4170 0 CHG=0 CFG=0
M  V30 3231 O     -39.8720    38.9600   -33.0790 0 CHG=0 CFG=0
M  V30 3232 H     -35.9800    38.2300   -32.9150 0 CHG=0 CFG=0
M  V30 3233 H     -37.3810    36.1280   -32.1770 0 CHG=0 CFG=0
M  V30 3234 H     -37.8830    37.9370   -34.3100 0 CHG=0 CFG=0
M  V30 3235 H     -38.8180    36.6730   -34.0840 0 CHG=0 CFG=0
M  V30 3236 N     -35.8780    35.8940   -34.9800 0 CHG=0 CFG=0
M  V30 3237 C     -35.3710    34.9380   -35.9440 0 CHG=0 CFG=2
M  V30 3238 C     -34.6940    33.7220   -35.2700 0 CHG=0 CFG=0
M  V30 3239 O     -34.8960    32.5660   -35.6650 0 CHG=0 CFG=0
M  V30 3240 C     -34.3780    35.6360   -36.8660 0 CHG=0 CFG=0
M  V30 3241 C     -34.0470    34.8090   -38.0410 0 CHG=0 CFG=0
M  V30 3242 O     -34.7370    33.8280   -38.3130 0 CHG=0 CFG=0
M  V30 3243 N     -32.9990    35.1730   -38.7610 0 CHG=0 CFG=0
M  V30 3244 H     -35.7070    36.7160   -35.1680 0 CHG=0 CFG=0
M  V30 3245 H     -36.1150    34.6080   -36.4900 0 CHG=0 CFG=0
M  V30 3246 H     -34.7640    36.4680   -37.1800 0 CHG=0 CFG=0
M  V30 3247 H     -33.5580    35.8100   -36.3780 0 CHG=0 CFG=0
M  V30 3248 H     -32.5420    35.8660   -38.5360 0 CHG=0 CFG=0
M  V30 3249 H     -32.7740    34.7160   -39.4540 0 CHG=0 CFG=0
M  V30 3250 N     -33.9150    34.0010   -34.2270 0 CHG=0 CFG=0
M  V30 3251 C     -33.2510    32.9610   -33.4460 0 CHG=0 CFG=2
M  V30 3252 C     -34.2420    32.0930   -32.6600 0 CHG=0 CFG=0
M  V30 3253 O     -34.0390    30.8960   -32.5020 0 CHG=0 CFG=0
M  V30 3254 C     -32.2590    33.6140   -32.4870 0 CHG=0 CFG=0
M  V30 3255 C     -31.4970    32.6800   -31.5570 0 CHG=0 CFG=0
M  V30 3256 C     -30.7210    31.6130   -32.3300 0 CHG=0 CFG=0
M  V30 3257 C     -30.5580    33.4990   -30.7060 0 CHG=0 CFG=0
M  V30 3258 H     -33.7540    34.7980   -33.9470 0 CHG=0 CFG=0
M  V30 3259 H     -32.7490    32.3770   -34.0520 0 CHG=0 CFG=0
M  V30 3260 H     -31.6020    34.0960   -33.0120 0 CHG=0 CFG=0
M  V30 3261 H     -32.7450    34.2410   -31.9290 0 CHG=0 CFG=0
M  V30 3262 H     -32.1250    32.2320   -30.9690 0 CHG=0 CFG=0
M  V30 3263 H     -30.2580    31.0500   -31.7050 0 CHG=0 CFG=0
M  V30 3264 H     -31.3390    31.0900   -32.8460 0 CHG=0 CFG=0
M  V30 3265 H     -30.0910    32.0450   -32.9110 0 CHG=0 CFG=0
M  V30 3266 H     -30.0770    32.9120   -30.1190 0 CHG=0 CFG=0
M  V30 3267 H     -29.9450    33.9660   -31.2780 0 CHG=0 CFG=0
M  V30 3268 H     -31.0710    34.1280   -30.1920 0 CHG=0 CFG=0
M  V30 3269 N     -35.3220    32.7000   -32.1830 0 CHG=0 CFG=0
M  V30 3270 C     -36.3870    31.9440   -31.5630 0 CHG=0 CFG=2
M  V30 3271 C     -37.0640    30.9530   -32.5250 0 CHG=0 CFG=0
M  V30 3272 O     -37.1260    29.7580   -32.2440 0 CHG=0 CFG=0
M  V30 3273 C     -37.3990    32.8970   -30.9490 0 CHG=0 CFG=0
M  V30 3274 C     -36.9670    33.3900   -29.5930 0 CHG=0 CFG=0
M  V30 3275 C     -37.5440    34.7430   -29.2700 0 CHG=0 CFG=0
M  V30 3276 C     -37.1320    35.1790   -27.8860 0 CHG=0 CFG=0
M  V30 3277 N     -37.6660    36.5260   -27.6080 0 CHG=1 CFG=0
M  V30 3278 H     -35.4580    33.5490   -32.2090 0 CHG=0 CFG=0
M  V30 3279 H     -36.0020    31.4180   -30.8310 0 CHG=0 CFG=0
M  V30 3280 H     -37.5050    33.6660   -31.5300 0 CHG=0 CFG=0
M  V30 3281 H     -38.2470    32.4370   -30.8460 0 CHG=0 CFG=0
M  V30 3282 H     -37.2680    32.7640   -28.9160 0 CHG=0 CFG=0
M  V30 3283 H     -36.0000    33.4620   -29.5750 0 CHG=0 CFG=0
M  V30 3284 H     -37.2150    35.3960   -29.9080 0 CHG=0 CFG=0
M  V30 3285 H     -38.5130    34.6970   -29.3010 0 CHG=0 CFG=0
M  V30 3286 H     -37.4920    34.5620   -27.2290 0 CHG=0 CFG=0
M  V30 3287 H     -36.1640    35.2120   -27.8290 0 CHG=0 CFG=0
M  V30 3288 H     -37.4250    36.7870   -26.7920 0 CHG=0 CFG=0
M  V30 3289 H     -37.3490    37.1070   -28.2030 0 CHG=0 CFG=0
M  V30 3290 H     -38.5550    36.5170   -27.6580 0 CHG=0 CFG=0
M  V30 3291 N     -37.5300    31.4560   -33.6610 0 CHG=0 CFG=0
M  V30 3292 C     -38.2800    30.6790   -34.6580 0 CHG=0 CFG=2
M  V30 3293 C     -37.4430    29.8630   -35.6050 0 CHG=0 CFG=0
M  V30 3294 O     -37.9790    29.2590   -36.4840 0 CHG=0 CFG=0
M  V30 3295 C     -39.0630    31.6120   -35.6280 0 CHG=0 CFG=2
M  V30 3296 O     -38.1620    32.5750   -36.1820 0 CHG=0 CFG=0
M  V30 3297 C     -40.1950    32.3340   -34.9340 0 CHG=0 CFG=0
M  V30 3298 H     -37.4230    32.2780   -33.8900 0 CHG=0 CFG=0
M  V30 3299 H     -38.9160    30.0850   -34.2070 0 CHG=0 CFG=0
M  V30 3300 H     -39.4400    31.0790   -36.3460 0 CHG=0 CFG=0
M  V30 3301 H     -38.5650    33.0730   -36.6950 0 CHG=0 CFG=0
M  V30 3302 H     -40.6550    32.8990   -35.5590 0 CHG=0 CFG=0
M  V30 3303 H     -40.8160    31.6990   -34.5720 0 CHG=0 CFG=0
M  V30 3304 H     -39.8500    32.8750   -34.2200 0 CHG=0 CFG=0
M  V30 3305 N     -36.1310    29.8990   -35.4880 0 CHG=0 CFG=0
M  V30 3306 C     -35.2780    29.0990   -36.3530 0 CHG=0 CFG=0
M  V30 3307 C     -34.5250    29.9490   -37.3510 0 CHG=0 CFG=0
M  V30 3308 O     -35.1360    30.8140   -37.9640 0 CHG=0 CFG=0
M  V30 3309 H     -35.7050    30.3780   -34.9150 0 CHG=0 CFG=0
M  V30 3310 H     -34.6350    28.6120   -35.8140 0 CHG=0 CFG=0
M  V30 3311 H     -35.8200    28.4580   -36.8400 0 CHG=0 CFG=0
M  V30 3312 N     -33.2100    29.7210   -37.4650 0 CHG=0 CFG=0
M  V30 3313 C     -32.3390    30.3980   -38.4320 0 CHG=0 CFG=2
M  V30 3314 C     -31.4260    29.3870   -39.1350 0 CHG=0 CFG=0
M  V30 3315 O     -30.8980    28.4930   -38.4800 0 CHG=0 CFG=0
M  V30 3316 C     -31.4440    31.4600   -37.7510 0 CHG=0 CFG=0
M  V30 3317 C     -32.2570    32.3130   -36.8260 0 CHG=0 CFG=0
M  V30 3318 C     -30.3470    30.8340   -36.9830 0 CHG=0 CFG=0
M  V30 3319 H     -32.7870    29.1570   -36.9730 0 CHG=0 CFG=0
M  V30 3320 H     -32.8890    30.8440   -39.1100 0 CHG=0 CFG=0
M  V30 3321 H     -31.0490    32.0380   -38.4370 0 CHG=0 CFG=0
M  V30 3322 H     -31.6830    32.9630   -36.4160 0 CHG=0 CFG=0
M  V30 3323 H     -32.9440    32.7550   -37.3320 0 CHG=0 CFG=0
M  V30 3324 H     -32.6530    31.7540   -36.1540 0 CHG=0 CFG=0
M  V30 3325 H     -29.8170    31.5240   -36.5780 0 CHG=0 CFG=0
M  V30 3326 H     -30.7240    30.2690   -36.3050 0 CHG=0 CFG=0
M  V30 3327 H     -29.8060    30.3120   -37.5810 0 CHG=0 CFG=0
M  V30 3328 N     -31.1970    29.5640   -40.4410 0 CHG=0 CFG=0
M  V30 3329 C     -30.5730    28.5250   -41.2810 0 CHG=0 CFG=2
M  V30 3330 C     -29.1640    28.8250   -41.7990 0 CHG=0 CFG=0
M  V30 3331 O     -28.7070    29.9620   -41.7370 0 CHG=0 CFG=0
M  V30 3332 C     -31.4500    28.2810   -42.4990 0 CHG=0 CFG=0
M  V30 3333 O     -32.8170    28.2850   -42.1450 0 CHG=0 CFG=0
M  V30 3334 H     -31.3950    30.2820   -40.8710 0 CHG=0 CFG=0
M  V30 3335 H     -30.5310    27.6900   -40.7690 0 CHG=0 CFG=0
M  V30 3336 H     -31.2900    28.9840   -43.1490 0 CHG=0 CFG=0
M  V30 3337 H     -31.2260    27.4180   -42.8820 0 CHG=0 CFG=0
M  V30 3338 H     -32.8980    28.4190   -41.3400 0 CHG=0 CFG=0
M  V30 3339 N     -28.5030    27.7940   -42.3430 0 CHG=0 CFG=0
M  V30 3340 C     -27.1790    27.9180   -42.9960 0 CHG=0 CFG=2
M  V30 3341 C     -26.7920    26.6120   -43.7460 0 CHG=0 CFG=0
M  V30 3342 O     -27.1980    25.5260   -43.3240 0 CHG=0 CFG=0
M  V30 3343 C     -26.0750    28.2570   -41.9610 0 CHG=0 CFG=2
M  V30 3344 C     -25.2970    29.5170   -42.3770 0 CHG=0 CFG=0
M  V30 3345 C     -25.1450    27.0660   -41.7620 0 CHG=0 CFG=0
M  V30 3346 C     -24.1180    29.8470   -41.4680 0 CHG=0 CFG=0
M  V30 3347 H     -28.8060    26.9890   -42.3470 0 CHG=0 CFG=0
M  V30 3348 H     -27.2140    28.6460   -43.6520 0 CHG=0 CFG=0
M  V30 3349 H     -26.5080    28.4410   -41.1130 0 CHG=0 CFG=0
M  V30 3350 H     -24.9510    29.3880   -43.2740 0 CHG=0 CFG=0
M  V30 3351 H     -25.9010    30.2750   -42.3640 0 CHG=0 CFG=0
M  V30 3352 H     -24.4720    27.3000   -41.1190 0 CHG=0 CFG=0
M  V30 3353 H     -25.6580    26.3200   -41.4430 0 CHG=0 CFG=0
M  V30 3354 H     -24.7340    26.8470   -42.6020 0 CHG=0 CFG=0
M  V30 3355 H     -24.4420    29.9910   -40.5760 0 CHG=0 CFG=0
M  V30 3356 H     -23.5010    29.1120   -41.4780 0 CHG=0 CFG=0
M  V30 3357 H     -23.6870    30.6420   -41.7920 0 CHG=0 CFG=0
M  V30 3358 N     -25.9930    26.7080   -44.8440 0 CHG=0 CFG=0
M  V30 3359 C     -25.5910    25.5410   -45.6740 0 CHG=0 CFG=2
M  V30 3360 C     -25.0620    24.3040   -44.8950 0 CHG=0 CFG=0
M  V30 3361 O     -24.0600    24.4220   -44.2000 0 CHG=0 CFG=0
M  V30 3362 C     -24.4800    26.1220   -46.5670 0 CHG=0 CFG=0
M  V30 3363 C     -24.7960    27.5950   -46.6660 0 CHG=0 CFG=0
M  V30 3364 C     -25.3960    27.9690   -45.3380 0 CHG=0 CFG=0
M  V30 3365 H     -26.3400    25.2620   -46.2410 0 CHG=0 CFG=0
M  V30 3366 H     -23.6160    25.9820   -46.1490 0 CHG=0 CFG=0
M  V30 3367 H     -24.5110    25.7040   -47.4420 0 CHG=0 CFG=0
M  V30 3368 H     -23.9790    28.0940   -46.8240 0 CHG=0 CFG=0
M  V30 3369 H     -25.4320    27.7450   -47.3830 0 CHG=0 CFG=0
M  V30 3370 H     -24.7040    28.2750   -44.7310 0 CHG=0 CFG=0
M  V30 3371 H     -26.0840    28.6420   -45.4580 0 CHG=0 CFG=0
M  V30 3372 N     -25.6980    23.1390   -45.0500 0 CHG=0 CFG=0
M  V30 3373 C     -25.4820    21.9760   -44.1520 0 CHG=0 CFG=2
M  V30 3374 C     -24.1840    21.1530   -44.3540 0 CHG=0 CFG=0
M  V30 3375 O     -23.3200    21.5170   -45.1600 0 CHG=0 CFG=0
M  V30 3376 C     -26.6910    21.0290   -44.2430 0 CHG=0 CFG=0
M  V30 3377 S     -26.7590    19.6390   -43.0300 0 CHG=0 CFG=0
M  V30 3378 H     -26.2690    22.9860   -45.6750 0 CHG=0 CFG=0
M  V30 3379 H     -25.4570    22.3140   -43.2320 0 CHG=0 CFG=0
M  V30 3380 H     -27.4970    21.5550   -44.1200 0 CHG=0 CFG=0
M  V30 3381 H     -26.6990    20.6350   -45.1300 0 CHG=0 CFG=0
M  V30 3382 H     -27.7530    18.9960   -43.2280 0 CHG=0 CFG=0
M  V30 3383 N     -24.0730    20.0460   -43.6030 0 CHG=0 CFG=0
M  V30 3384 C     -22.8990    19.1510   -43.6200 0 CHG=0 CFG=2
M  V30 3385 C     -23.2470    17.6860   -43.9970 0 CHG=0 CFG=0
M  V30 3386 O     -22.6740    16.7480   -43.4330 0 CHG=0 CFG=0
M  V30 3387 C     -22.1760    19.1330   -42.2240 0 CHG=0 CFG=0
M  V30 3388 C     -20.8540    18.3690   -42.2880 0 CHG=0 CFG=0
M  V30 3389 C     -21.9230    20.5470   -41.7080 0 CHG=0 CFG=0
M  V30 3390 H     -24.6840    19.7840   -43.0580 0 CHG=0 CFG=0
M  V30 3391 H     -22.2590    19.4860   -44.2830 0 CHG=0 CFG=0
M  V30 3392 H     -22.7530    18.6770   -41.5760 0 CHG=0 CFG=0
M  V30 3393 H     -20.4450    18.3810   -41.4200 0 CHG=0 CFG=0
M  V30 3394 H     -21.0290    17.4640   -42.5560 0 CHG=0 CFG=0
M  V30 3395 H     -20.2780    18.7950   -42.9270 0 CHG=0 CFG=0
M  V30 3396 H     -21.4820    20.4940   -40.8570 0 CHG=0 CFG=0
M  V30 3397 H     -21.3680    21.0140   -42.3370 0 CHG=0 CFG=0
M  V30 3398 H     -22.7640    21.0000   -41.6140 0 CHG=0 CFG=0
M  V30 3399 N     -24.1720    17.4890   -44.9440 0 CHG=0 CFG=0
M  V30 3400 C     -24.5420    16.1320   -45.4060 0 CHG=0 CFG=2
M  V30 3401 C     -25.3600    16.0490   -46.7170 0 CHG=0 CFG=0
M  V30 3402 O     -25.4950    14.9650   -47.2890 0 CHG=0 CFG=0
M  V30 3403 C     -25.2890    15.3680   -44.3000 0 CHG=0 CFG=0
M  V30 3404 S     -26.8590    16.1290   -43.7470 0 CHG=0 CFG=0
M  V30 3405 H     -24.6040    18.1210   -45.3370 0 CHG=0 CFG=0
M  V30 3406 H     -23.7090    15.6430   -45.5690 0 CHG=0 CFG=0
M  V30 3407 H     -25.4960    14.4790   -44.6270 0 CHG=0 CFG=0
M  V30 3408 H     -24.7090    15.3030   -43.5260 0 CHG=0 CFG=0
M  V30 3409 H     -27.3440    15.4450   -42.8890 0 CHG=0 CFG=0
M  V30 3410 N     -25.9140    17.1730   -47.1720 0 CHG=0 CFG=0
M  V30 3411 C     -26.7370    17.2070   -48.3730 0 CHG=0 CFG=0
M  V30 3412 C     -27.5440    18.4980   -48.4980 0 CHG=0 CFG=0
M  V30 3413 O     -27.3180    19.2900   -49.4170 0 CHG=0 CFG=0
M  V30 3414 H     -25.8230    17.9410   -46.7950 0 CHG=0 CFG=0
M  V30 3415 H     -26.1700    17.1240   -49.1560 0 CHG=0 CFG=0
M  V30 3416 H     -27.3550    16.4600   -48.3610 0 CHG=0 CFG=0
M  V30 3417 N     -28.4830    18.7040   -47.5710 0 CHG=0 CFG=0
M  V30 3418 C     -29.3160    19.9140   -47.5360 0 CHG=0 CFG=2
M  V30 3419 C     -29.2160    20.6500   -46.1930 0 CHG=0 CFG=0
M  V30 3420 O     -28.9710    20.0370   -45.1570 0 CHG=0 CFG=0
M  V30 3421 C     -30.7850    19.5580   -47.8170 0 CHG=0 CFG=0
M  V30 3422 C     -31.7860    20.7270   -47.6440 0 CHG=0 CFG=0
M  V30 3423 C     -32.2040    20.8960   -46.1780 0 CHG=0 CFG=0
M  V30 3424 N     -33.4970    21.5620   -46.0020 0 CHG=0 CFG=0
M  V30 3425 C     -34.2010    21.5430   -44.8670 0 CHG=0 CFG=0
M  V30 3426 N     -33.7410    20.8980   -43.8020 0 CHG=0 CFG=0
M  V30 3427 N     -35.3700    22.1660   -44.7930 0 CHG=0 CFG=0
M  V30 3428 H     -28.6610    18.1480   -46.9390 0 CHG=0 CFG=0
M  V30 3429 H     -29.0150    20.5270   -48.2390 0 CHG=0 CFG=0
M  V30 3430 H     -30.8570    19.2440   -48.7310 0 CHG=0 CFG=0
M  V30 3431 H     -31.0520    18.8520   -47.2080 0 CHG=0 CFG=0
M  V30 3432 H     -31.3690    21.5520   -47.9380 0 CHG=0 CFG=0
M  V30 3433 H     -32.5820    20.5470   -48.1690 0 CHG=0 CFG=0
M  V30 3434 H     -32.2650    20.0190   -45.7680 0 CHG=0 CFG=0
M  V30 3435 H     -31.5330    21.4270   -45.7210 0 CHG=0 CFG=0
M  V30 3436 H     -33.8390    21.9640   -46.6810 0 CHG=0 CFG=0
M  V30 3437 H     -32.9850    20.4880   -43.8410 0 CHG=0 CFG=0
M  V30 3438 H     -34.1980    20.8890   -43.0740 0 CHG=0 CFG=0
M  V30 3439 H     -35.6770    22.5880   -45.4770 0 CHG=0 CFG=0
M  V30 3440 H     -35.8190    22.1540   -44.0600 0 CHG=0 CFG=0
M  V30 3441 N     -29.4230    21.9650   -46.2260 0 CHG=0 CFG=0
M  V30 3442 C     -29.4570    22.8090   -45.0150 0 CHG=0 CFG=1
M  V30 3443 C     -29.9150    22.3810   -43.5910 0 CHG=0 CFG=0
M  V30 3444 O     -30.8190    21.5510   -43.4350 0 CHG=0 CFG=0
M  V30 3445 C     -29.4260    24.3340   -45.2970 0 CHG=0 CFG=0
M  V30 3446 C     -30.8270    24.9600   -45.4300 0 CHG=0 CFG=0
M  V30 3447 O     -31.8070    24.2400   -45.7250 0 CHG=0 CFG=0
M  V30 3448 O     -30.9380    26.1930   -45.2450 0 CHG=0 CFG=0
M  V30 3449 H     -29.5510    22.4080   -46.9520 0 CHG=0 CFG=0
M  V30 3450 H     -30.4210    22.8550   -45.1850 0 CHG=0 CFG=0
M  V30 3451 H     -28.9690    24.7790   -44.5660 0 CHG=0 CFG=0
M  V30 3452 H     -28.9500    24.4900   -46.1270 0 CHG=0 CFG=0
M  V30 3453 N     -29.2840    22.9690   -42.5730 0 CHG=0 CFG=0
M  V30 3454 C     -29.5710    22.6550   -41.1700 0 CHG=0 CFG=2
M  V30 3455 C     -30.0290    23.8990   -40.3940 0 CHG=0 CFG=0
M  V30 3456 O     -29.5300    25.0010   -40.6410 0 CHG=0 CFG=0
M  V30 3457 C     -28.3360    22.0620   -40.5180 0 CHG=0 CFG=0
M  V30 3458 H     -28.6720    23.5650   -42.6710 0 CHG=0 CFG=0
M  V30 3459 H     -30.2880    21.9890   -41.1300 0 CHG=0 CFG=0
M  V30 3460 H     -28.5340    21.8600   -39.6000 0 CHG=0 CFG=0
M  V30 3461 H     -28.0920    21.2590   -40.9840 0 CHG=0 CFG=0
M  V30 3462 H     -27.6200    22.7000   -40.5660 0 CHG=0 CFG=0
M  V30 3463 N     -30.9580    23.7160   -39.4490 0 CHG=0 CFG=0
M  V30 3464 C     -31.5210    24.8390   -38.6880 0 CHG=0 CFG=2
M  V30 3465 C     -31.1030    24.9010   -37.2180 0 CHG=0 CFG=0
M  V30 3466 O     -30.6330    23.9310   -36.6480 0 CHG=0 CFG=0
M  V30 3467 C     -33.0420    24.8600   -38.8110 0 CHG=0 CFG=2
M  V30 3468 O     -33.3770    25.5050   -40.0370 0 CHG=0 CFG=0
M  V30 3469 C     -33.6890    25.6380   -37.6980 0 CHG=0 CFG=0
M  V30 3470 H     -31.2800    22.9500   -39.2300 0 CHG=0 CFG=0
M  V30 3471 H     -31.1970    25.6650   -39.1030 0 CHG=0 CFG=0
M  V30 3472 H     -33.3890    23.9540   -38.8070 0 CHG=0 CFG=0
M  V30 3473 H     -33.0860    26.2710   -40.0390 0 CHG=0 CFG=0
M  V30 3474 H     -34.6430    25.6310   -37.8050 0 CHG=0 CFG=0
M  V30 3475 H     -33.4680    25.2450   -36.8510 0 CHG=0 CFG=0
M  V30 3476 H     -33.3800    26.5470   -37.7100 0 CHG=0 CFG=0
M  V30 3477 N     -31.2510    26.0780   -36.6280 0 CHG=0 CFG=0
M  V30 3478 C     -30.8390    26.3340   -35.2570 0 CHG=0 CFG=2
M  V30 3479 C     -31.9360    27.1480   -34.6140 0 CHG=0 CFG=0
M  V30 3480 O     -32.3890    28.1630   -35.1800 0 CHG=0 CFG=0
M  V30 3481 C     -29.5310    27.1530   -35.2530 0 CHG=0 CFG=0
M  V30 3482 C     -28.6800    27.0380   -34.0220 0 CHG=0 CFG=0
M  V30 3483 C     -27.2530    27.6140   -34.2100 0 CHG=0 CFG=0
M  V30 3484 O     -27.0570    28.8260   -34.3240 0 CHG=0 CFG=0
M  V30 3485 N     -26.2640    26.7340   -34.2370 0 CHG=0 CFG=0
M  V30 3486 H     -31.5980    26.7640   -37.0140 0 CHG=0 CFG=0
M  V30 3487 H     -30.7110    25.4960   -34.7660 0 CHG=0 CFG=0
M  V30 3488 H     -28.9910    26.8660   -36.0060 0 CHG=0 CFG=0
M  V30 3489 H     -29.7590    28.0900   -35.3600 0 CHG=0 CFG=0
M  V30 3490 H     -29.1060    27.5240   -33.2990 0 CHG=0 CFG=0
M  V30 3491 H     -28.5950    26.1010   -33.7850 0 CHG=0 CFG=0
M  V30 3492 H     -26.4320    25.8950   -34.1520 0 CHG=0 CFG=0
M  V30 3493 H     -25.4530    27.0010   -34.3390 0 CHG=0 CFG=0
M  V30 3494 N     -32.3740    26.7280   -33.4370 0 CHG=0 CFG=0
M  V30 3495 C     -33.3500    27.5270   -32.7170 0 CHG=0 CFG=2
M  V30 3496 C     -33.1320    27.5390   -31.2090 0 CHG=0 CFG=0
M  V30 3497 O     -32.5160    26.6540   -30.6400 0 CHG=0 CFG=0
M  V30 3498 C     -34.7920    27.1410   -33.1090 0 CHG=0 CFG=0
M  V30 3499 C     -35.3520    25.8890   -32.4740 0 CHG=0 CFG=0
M  V30 3500 C     -36.3280    25.9730   -31.4830 0 CHG=0 CFG=0
M  V30 3501 C     -34.9430    24.6170   -32.8870 0 CHG=0 CFG=0
M  V30 3502 C     -36.8750    24.8190   -30.8970 0 CHG=0 CFG=0
M  V30 3503 C     -35.4930    23.4470   -32.3090 0 CHG=0 CFG=0
M  V30 3504 C     -36.4530    23.5650   -31.3150 0 CHG=0 CFG=0
M  V30 3505 O     -36.9960    22.4500   -30.7220 0 CHG=0 CFG=0
M  V30 3506 H     -32.1300    26.0040   -33.0420 0 CHG=0 CFG=0
M  V30 3507 H     -33.2310    28.4540   -33.0120 0 CHG=0 CFG=0
M  V30 3508 H     -35.3790    27.8740   -32.8660 0 CHG=0 CFG=0
M  V30 3509 H     -34.8210    27.0130   -34.0700 0 CHG=0 CFG=0
M  V30 3510 H     -36.6180    26.8100   -31.1990 0 CHG=0 CFG=0
M  V30 3511 H     -34.3000    24.5380   -33.5550 0 CHG=0 CFG=0
M  V30 3512 H     -37.5190    24.8950   -30.2310 0 CHG=0 CFG=0
M  V30 3513 H     -35.2040    22.6070   -32.5860 0 CHG=0 CFG=0
M  V30 3514 H     -36.4060    22.0060   -30.3650 0 CHG=0 CFG=0
M  V30 3515 N     -33.6310    28.5940   -30.5900 0 CHG=0 CFG=0
M  V30 3516 C     -33.3850    28.8860   -29.2080 0 CHG=0 CFG=2
M  V30 3517 C     -34.4090    28.1990   -28.3720 0 CHG=0 CFG=0
M  V30 3518 O     -35.5750    28.5650   -28.4080 0 CHG=0 CFG=0
M  V30 3519 C     -33.4970    30.3930   -28.9800 0 CHG=0 CFG=0
M  V30 3520 C     -33.3310    30.8940   -27.5520 0 CHG=0 CFG=0
M  V30 3521 C     -31.9710    30.4790   -26.9330 0 CHG=0 CFG=0
M  V30 3522 C     -33.5260    32.4120   -27.5450 0 CHG=0 CFG=0
M  V30 3523 H     -34.1360    29.1740   -30.9740 0 CHG=0 CFG=0
M  V30 3524 H     -32.4910    28.5820   -28.9470 0 CHG=0 CFG=0
M  V30 3525 H     -32.8170    30.8300   -29.5160 0 CHG=0 CFG=0
M  V30 3526 H     -34.3740    30.6790   -29.2820 0 CHG=0 CFG=0
M  V30 3527 H     -34.0320    30.5060   -27.0050 0 CHG=0 CFG=0
M  V30 3528 H     -31.9190    30.8200   -26.0370 0 CHG=0 CFG=0
M  V30 3529 H     -31.9110    29.5210   -26.9240 0 CHG=0 CFG=0
M  V30 3530 H     -31.2610    30.8470   -27.4650 0 CHG=0 CFG=0
M  V30 3531 H     -33.4230    32.7360   -26.6480 0 CHG=0 CFG=0
M  V30 3532 H     -32.8680    32.8130   -28.1170 0 CHG=0 CFG=0
M  V30 3533 H     -34.4080    32.6150   -27.8680 0 CHG=0 CFG=0
M  V30 3534 N     -33.9560    27.2450   -27.5700 0 CHG=0 CFG=0
M  V30 3535 C     -34.8510    26.5340   -26.6890 0 CHG=0 CFG=2
M  V30 3536 C     -34.8310    27.1470   -25.3020 0 CHG=0 CFG=0
M  V30 3537 O     -35.8050    27.0530   -24.5760 0 CHG=0 CFG=0
M  V30 3538 C     -34.5430    25.0220   -26.6030 0 CHG=0 CFG=0
M  V30 3539 C     -33.6600    24.5830   -27.7650 0 CHG=0 CFG=0
M  V30 3540 C     -33.9030    24.6810   -25.2700 0 CHG=0 CFG=0
M  V30 3541 H     -33.1350    26.9940   -27.5220 0 CHG=0 CFG=0
M  V30 3542 H     -35.7630    26.6270   -27.0360 0 CHG=0 CFG=0
M  V30 3543 H     -35.3860    24.5250   -26.6640 0 CHG=0 CFG=0
M  V30 3544 H     -33.4860    23.6420   -27.6860 0 CHG=0 CFG=0
M  V30 3545 H     -34.1170    24.7630   -28.5890 0 CHG=0 CFG=0
M  V30 3546 H     -32.8360    25.0730   -27.7330 0 CHG=0 CFG=0
M  V30 3547 H     -33.7220    23.7390   -25.2420 0 CHG=0 CFG=0
M  V30 3548 H     -33.0840    25.1750   -25.1820 0 CHG=0 CFG=0
M  V30 3549 H     -34.5070    24.9200   -24.5630 0 CHG=0 CFG=0
M  V30 3550 N     -33.7330    27.7750   -24.9180 0 CHG=0 CFG=0
M  V30 3551 C     -33.6980    28.4410   -23.6220 0 CHG=0 CFG=2
M  V30 3552 C     -32.6320    29.5320   -23.5540 0 CHG=0 CFG=0
M  V30 3553 O     -31.5340    29.3700   -24.0730 0 CHG=0 CFG=0
M  V30 3554 C     -33.4500    27.4270   -22.5020 0 CHG=0 CFG=0
M  V30 3555 C     -33.6430    28.0310   -21.1150 0 CHG=0 CFG=0
M  V30 3556 C     -33.0220    27.2190   -19.9940 0 CHG=0 CFG=0
M  V30 3557 O     -32.4390    26.1490   -20.2140 0 CHG=0 CFG=0
M  V30 3558 N     -33.1350    27.7380   -18.7710 0 CHG=0 CFG=0
M  V30 3559 H     -33.0070    27.8320   -25.3760 0 CHG=0 CFG=0
M  V30 3560 H     -34.5690    28.8620   -23.4590 0 CHG=0 CFG=0
M  V30 3561 H     -34.0730    26.6900   -22.5980 0 CHG=0 CFG=0
M  V30 3562 H     -32.5380    27.1030   -22.5650 0 CHG=0 CFG=0
M  V30 3563 H     -33.2380    28.9130   -21.1000 0 CHG=0 CFG=0
M  V30 3564 H     -34.5930    28.1040   -20.9360 0 CHG=0 CFG=0
M  V30 3565 H     -33.5400    28.4880   -18.6580 0 CHG=0 CFG=0
M  V30 3566 H     -32.8030    27.3220   -18.0950 0 CHG=0 CFG=0
M  V30 3567 N     -32.9820    30.6300   -22.8950 0 CHG=0 CFG=0
M  V30 3568 C     -32.0860    31.7260   -22.6560 0 CHG=0 CFG=2
M  V30 3569 C     -32.2030    32.1990   -21.1950 0 CHG=0 CFG=0
M  V30 3570 O     -33.3040    32.3530   -20.6840 0 CHG=0 CFG=0
M  V30 3571 C     -32.4280    32.8810   -23.6040 0 CHG=0 CFG=0
M  V30 3572 C     -31.4450    34.0280   -23.5120 0 CHG=0 CFG=0
M  V30 3573 C     -30.0730    33.5890   -23.9300 0 CHG=0 CFG=0
M  V30 3574 O     -29.9320    32.7210   -24.7820 0 CHG=0 CFG=0
M  V30 3575 N     -29.0540    34.1670   -23.3300 0 CHG=0 CFG=0
M  V30 3576 H     -33.7670    30.7580   -22.5680 0 CHG=0 CFG=0
M  V30 3577 H     -31.1630    31.4420   -22.8230 0 CHG=0 CFG=0
M  V30 3578 H     -32.4200    32.5520   -24.5170 0 CHG=0 CFG=0
M  V30 3579 H     -33.3080    33.2210   -23.3820 0 CHG=0 CFG=0
M  V30 3580 H     -31.7300    34.7450   -24.1000 0 CHG=0 CFG=0
M  V30 3581 H     -31.4010    34.3410   -22.5950 0 CHG=0 CFG=0
M  V30 3582 H     -29.1930    34.7660   -22.7290 0 CHG=0 CFG=0
M  V30 3583 H     -28.2500    33.9450   -23.5390 0 CHG=0 CFG=0
M  V30 3584 N     -31.0790    32.4420   -20.5270 0 CHG=0 CFG=0
M  V30 3585 C     -31.0850    33.0380   -19.1950 0 CHG=0 CFG=2
M  V30 3586 C     -30.0380    34.1460   -19.1350 0 CHG=0 CFG=0
M  V30 3587 O     -28.8300    33.8670   -19.0610 0 CHG=0 CFG=0
M  V30 3588 C     -30.7370    31.9880   -18.1270 0 CHG=0 CFG=0
M  V30 3589 C     -31.6520    30.7550   -18.0750 0 CHG=0 CFG=0
M  V30 3590 C     -33.0690    31.0540   -17.5560 0 CHG=0 CFG=0
M  V30 3591 O     -33.2740    32.0580   -16.8010 0 CHG=0 CFG=0
M  V30 3592 O     -33.9850    30.2700   -17.9310 0 CHG=0 CFG=0
M  V30 3593 H     -30.2920    32.2690   -20.8270 0 CHG=0 CFG=0
M  V30 3594 H     -31.9670    33.4170   -18.9990 0 CHG=0 CFG=0
M  V30 3595 H     -29.8350    31.6720   -18.2920 0 CHG=0 CFG=0
M  V30 3596 H     -30.7760    32.4140   -17.2570 0 CHG=0 CFG=0
M  V30 3597 H     -31.7350    30.3890   -18.9700 0 CHG=0 CFG=0
M  V30 3598 H     -31.2540    30.0950   -17.4860 0 CHG=0 CFG=0
M  V30 3599 N     -30.4730    35.3980   -19.1670 0 CHG=0 CFG=0
M  V30 3600 C     -29.5300    36.5040   -19.0270 0 CHG=0 CFG=2
M  V30 3601 C     -30.2400    37.8310   -19.0050 0 CHG=0 CFG=0
M  V30 3602 O     -31.4300    37.9010   -19.3200 0 CHG=0 CFG=0
M  V30 3603 C     -28.5120    36.4970   -20.1640 0 CHG=0 CFG=0
M  V30 3604 O     -29.1160    36.2020   -21.4080 0 CHG=0 CFG=0
M  V30 3605 H     -31.2940    35.6350   -19.2660 0 CHG=0 CFG=0
M  V30 3606 H     -29.0440    36.4050   -18.1820 0 CHG=0 CFG=0
M  V30 3607 H     -28.0960    37.3720   -20.2170 0 CHG=0 CFG=0
M  V30 3608 H     -27.8380    35.8240   -19.9760 0 CHG=0 CFG=0
M  V30 3609 H     -28.5500    36.2040   -22.0020 0 CHG=0 CFG=0
M  V30 3610 N     -29.4980    38.8890   -18.6710 0 CHG=0 CFG=0
M  V30 3611 C     -30.1020    40.2050   -18.5570 0 CHG=0 CFG=2
M  V30 3612 C     -30.2600    40.8830   -19.9180 0 CHG=0 CFG=0
M  V30 3613 O     -31.0480    41.8180   -20.0700 0 CHG=0 CFG=0
M  V30 3614 C     -29.3060    41.0650   -17.5950 0 CHG=0 CFG=0
M  V30 3615 O     -27.9780    41.1920   -18.0270 0 CHG=0 CFG=0
M  V30 3616 H     -28.6540    38.8670   -18.5090 0 CHG=0 CFG=0
M  V30 3617 H     -31.0000    40.0990   -18.1790 0 CHG=0 CFG=0
M  V30 3618 H     -29.7090    41.9460   -17.5500 0 CHG=0 CFG=0
M  V30 3619 H     -29.3150    40.6500   -16.7180 0 CHG=0 CFG=0
M  V30 3620 H     -27.5550    41.6580   -17.5010 0 CHG=0 CFG=0
M  V30 3621 N     -29.5340    40.3910   -20.9150 0 CHG=0 CFG=0
M  V30 3622 C     -29.6620    40.8970   -22.2830 0 CHG=0 CFG=2
M  V30 3623 C     -29.1130    39.8830   -23.2530 0 CHG=0 CFG=0
M  V30 3624 O     -28.6540    38.8120   -22.8520 0 CHG=0 CFG=0
M  V30 3625 C     -28.8860    42.1810   -22.4610 0 CHG=0 CFG=0
M  V30 3626 C     -27.4290    41.9810   -22.4400 0 CHG=0 CFG=0
M  V30 3627 C     -26.7440    41.9310   -21.2320 0 CHG=0 CFG=0
M  V30 3628 C     -26.7210    41.8400   -23.6220 0 CHG=0 CFG=0
M  V30 3629 C     -25.3970    41.7300   -21.2000 0 CHG=0 CFG=0
M  V30 3630 C     -25.3630    41.6380   -23.6060 0 CHG=0 CFG=0
M  V30 3631 C     -24.6960    41.5780   -22.3910 0 CHG=0 CFG=0
M  V30 3632 H     -28.9570    39.7600   -20.8290 0 CHG=0 CFG=0
M  V30 3633 H     -30.6050    41.0620   -22.4930 0 CHG=0 CFG=0
M  V30 3634 H     -29.1210    42.5750   -23.3160 0 CHG=0 CFG=0
M  V30 3635 H     -29.1150    42.7900   -21.7420 0 CHG=0 CFG=0
M  V30 3636 H     -27.2140    42.0210   -20.4350 0 CHG=0 CFG=0
M  V30 3637 H     -27.1720    41.8690   -24.4340 0 CHG=0 CFG=0
M  V30 3638 H     -24.9490    41.6950   -20.3860 0 CHG=0 CFG=0
M  V30 3639 H     -24.8940    41.5410   -24.4040 0 CHG=0 CFG=0
M  V30 3640 H     -23.7750    41.4510   -22.3740 0 CHG=0 CFG=0
M  V30 3641 N     -29.2140    40.2030   -24.5370 0 CHG=0 CFG=0
M  V30 3642 C     -28.4820    39.4820   -25.5820 0 CHG=0 CFG=2
M  V30 3643 C     -28.0710    40.4250   -26.7060 0 CHG=0 CFG=0
M  V30 3644 O     -28.7550    41.4080   -27.0060 0 CHG=0 CFG=0
M  V30 3645 C     -29.2820    38.2880   -26.1600 0 CHG=0 CFG=0
M  V30 3646 C     -29.7200    37.3480   -25.0420 0 CHG=0 CFG=0
M  V30 3647 C     -30.4490    38.7570   -26.9050 0 CHG=0 CFG=0
M  V30 3648 H     -29.7060    40.8420   -24.8370 0 CHG=0 CFG=0
M  V30 3649 H     -27.6600    39.1200   -25.1880 0 CHG=0 CFG=0
M  V30 3650 H     -28.7090    37.7840   -26.7760 0 CHG=0 CFG=0
M  V30 3651 H     -30.2130    36.6180   -25.4240 0 CHG=0 CFG=0
M  V30 3652 H     -28.9410    37.0170   -24.5890 0 CHG=0 CFG=0
M  V30 3653 H     -30.2760    37.8330   -24.4280 0 CHG=0 CFG=0
M  V30 3654 H     -30.9240    37.9970   -27.2510 0 CHG=0 CFG=0
M  V30 3655 H     -31.0170    39.2570   -26.3140 0 CHG=0 CFG=0
M  V30 3656 H     -30.1550    39.3160   -27.6280 0 CHG=0 CFG=0
M  V30 3657 N     -26.9590    40.0990   -27.3530 0 CHG=0 CFG=0
M  V30 3658 C     -26.4230    40.9180   -28.4380 0 CHG=0 CFG=2
M  V30 3659 C     -26.4620    40.1340   -29.7320 0 CHG=0 CFG=0
M  V30 3660 O     -25.8000    39.1040   -29.8320 0 CHG=0 CFG=0
M  V30 3661 C     -24.9850    41.3070   -28.1010 0 CHG=0 CFG=0
M  V30 3662 C     -24.1830    41.9010   -29.2500 0 CHG=0 CFG=0
M  V30 3663 S     -22.5780    42.4620   -28.6890 0 CHG=0 CFG=0
M  V30 3664 C     -22.0740    43.4740   -30.0660 0 CHG=0 CFG=0
M  V30 3665 H     -26.4890    39.4000   -27.1810 0 CHG=0 CFG=0
M  V30 3666 H     -26.9560    41.7350   -28.5300 0 CHG=0 CFG=0
M  V30 3667 H     -25.0040    41.9640   -27.3880 0 CHG=0 CFG=0
M  V30 3668 H     -24.5160    40.5140   -27.7970 0 CHG=0 CFG=0
M  V30 3669 H     -24.0490    41.2250   -29.9320 0 CHG=0 CFG=0
M  V30 3670 H     -24.6610    42.6620   -29.6160 0 CHG=0 CFG=0
M  V30 3671 H     -21.2060    43.8420   -29.8820 0 CHG=0 CFG=0
M  V30 3672 H     -22.0390    42.9310   -30.8570 0 CHG=0 CFG=0
M  V30 3673 H     -22.7110    44.1820   -30.1830 0 CHG=0 CFG=0
M  V30 3674 N     -27.2120    40.6120   -30.7300 0 CHG=0 CFG=0
M  V30 3675 C     -27.3110    39.9180   -32.0380 0 CHG=0 CFG=2
M  V30 3676 C     -26.4750    40.6590   -33.1010 0 CHG=0 CFG=0
M  V30 3677 O     -26.6470    41.8790   -33.3240 0 CHG=0 CFG=0
M  V30 3678 C     -28.7700    39.8700   -32.5150 0 CHG=0 CFG=0
M  V30 3679 C     -29.7610    39.2040   -31.5740 0 CHG=0 CFG=0
M  V30 3680 S     -29.4460    37.4460   -31.2450 0 CHG=0 CFG=0
M  V30 3681 C     -29.6810    36.6490   -32.8230 0 CHG=0 CFG=0
M  V30 3682 H     -27.6760    41.3350   -30.6830 0 CHG=0 CFG=0
M  V30 3683 H     -26.9830    38.9990   -31.9460 0 CHG=0 CFG=0
M  V30 3684 H     -29.0740    40.7800   -32.6570 0 CHG=0 CFG=0
M  V30 3685 H     -28.8000    39.3870   -33.3550 0 CHG=0 CFG=0
M  V30 3686 H     -29.7400    39.6690   -30.7230 0 CHG=0 CFG=0
M  V30 3687 H     -30.6480    39.2740   -31.9610 0 CHG=0 CFG=0
M  V30 3688 H     -30.5800    36.8060   -33.1220 0 CHG=0 CFG=0
M  V30 3689 H     -29.0580    37.0170   -33.4540 0 CHG=0 CFG=0
M  V30 3690 H     -29.5290    35.7070   -32.7230 0 CHG=0 CFG=0
M  V30 3691 N     -25.5810    39.9480   -33.7760 0 CHG=0 CFG=0
M  V30 3692 C     -24.7020    40.6130   -34.7200 0 CHG=0 CFG=2
M  V30 3693 C     -24.7180    39.9350   -36.0920 0 CHG=0 CFG=0
M  V30 3694 O     -24.9740    38.7500   -36.1940 0 CHG=0 CFG=0
M  V30 3695 C     -23.2980    40.6310   -34.1760 0 CHG=0 CFG=0
M  V30 3696 O     -23.1660    41.5210   -33.0810 0 CHG=0 CFG=0
M  V30 3697 H     -25.4650    39.0990   -33.7080 0 CHG=0 CFG=0
M  V30 3698 H     -24.9970    41.5410   -34.8350 0 CHG=0 CFG=0
M  V30 3699 H     -23.0660    39.7370   -33.8810 0 CHG=0 CFG=0
M  V30 3700 H     -22.6930    40.9120   -34.8810 0 CHG=0 CFG=0
M  V30 3701 H     -22.3950    41.5130   -32.8040 0 CHG=0 CFG=0
M  V30 3702 N     -24.4140    40.6970   -37.1360 0 CHG=0 CFG=0
M  V30 3703 C     -24.3100    40.1610   -38.4820 0 CHG=0 CFG=2
M  V30 3704 C     -23.5580    41.1920   -39.2870 0 CHG=0 CFG=0
M  V30 3705 O     -23.5210    42.3750   -38.8820 0 CHG=0 CFG=0
M  V30 3706 C     -25.6860    39.9570   -39.0640 0 CHG=0 CFG=0
M  V30 3707 H     -24.2610    41.5420   -37.0870 0 CHG=0 CFG=0
M  V30 3708 H     -23.8180    39.3130   -38.4830 0 CHG=0 CFG=0
M  V30 3709 H     -25.5990    39.6020   -39.9520 0 CHG=0 CFG=0
M  V30 3710 H     -26.1710    39.3410   -38.5110 0 CHG=0 CFG=0
M  V30 3711 H     -26.1410    40.8020   -39.0920 0 CHG=0 CFG=0
M  V30 3712 N     -22.9490    40.7660   -40.4090 0 CHG=0 CFG=0
M  V30 3713 C     -22.2960    41.7390   -41.2780 0 CHG=0 CFG=2
M  V30 3714 C     -23.3530    42.7750   -41.6380 0 CHG=0 CFG=0
M  V30 3715 O     -24.5300    42.4280   -41.7370 0 CHG=0 CFG=0
M  V30 3716 C     -21.8880    40.9260   -42.4880 0 CHG=0 CFG=0
M  V30 3717 C     -21.9670    39.5540   -42.0920 0 CHG=0 CFG=0
M  V30 3718 C     -22.9790    39.4400   -41.0160 0 CHG=0 CFG=0
M  V30 3719 H     -21.5190    42.1540   -40.8500 0 CHG=0 CFG=0
M  V30 3720 H     -22.5000    41.1050   -43.2200 0 CHG=0 CFG=0
M  V30 3721 H     -20.9800    41.1550   -42.7410 0 CHG=0 CFG=0
M  V30 3722 H     -22.2310    39.0180   -42.8560 0 CHG=0 CFG=0
M  V30 3723 H     -21.1000    39.2670   -41.7660 0 CHG=0 CFG=0
M  V30 3724 H     -23.8550    39.2570   -41.3900 0 CHG=0 CFG=0
M  V30 3725 H     -22.7160    38.7650   -40.3720 0 CHG=0 CFG=0
M  V30 3726 N     -22.9490    44.0350   -41.7710 0 CHG=0 CFG=0
M  V30 3727 C     -23.9640    45.0860   -41.9060 0 CHG=0 CFG=2
M  V30 3728 C     -24.9500    44.8060   -43.0460 0 CHG=0 CFG=0
M  V30 3729 O     -24.6030    44.3860   -44.1370 0 CHG=0 CFG=0
M  V30 3730 C     -23.1420    46.3560   -42.1730 0 CHG=0 CFG=0
M  V30 3731 C     -21.7350    46.0130   -41.8120 0 CHG=0 CFG=0
M  V30 3732 C     -21.5840    44.5370   -42.0240 0 CHG=0 CFG=0
M  V30 3733 H     -24.4590    45.1910   -41.0670 0 CHG=0 CFG=0
M  V30 3734 H     -23.2050    46.5930   -43.1110 0 CHG=0 CFG=0
M  V30 3735 H     -23.4700    47.0790   -41.6150 0 CHG=0 CFG=0
M  V30 3736 H     -21.1270    46.5020   -42.3880 0 CHG=0 CFG=0
M  V30 3737 H     -21.5770    46.2390   -40.8830 0 CHG=0 CFG=0
M  V30 3738 H     -21.3170    44.3500   -42.9380 0 CHG=0 CFG=0
M  V30 3739 H     -20.9590    44.1630   -41.3830 0 CHG=0 CFG=0
M  V30 3740 N     -26.2140    45.0050   -42.7530 0 CHG=0 CFG=0
M  V30 3741 C     -27.2550    44.7260   -43.6990 0 CHG=0 CFG=2
M  V30 3742 C     -28.4560    45.6460   -43.4740 0 CHG=0 CFG=0
M  V30 3743 O     -28.7280    46.0940   -42.3540 0 CHG=0 CFG=0
M  V30 3744 C     -27.6770    43.3180   -43.5380 0 CHG=0 CFG=0
M  V30 3745 H     -26.4970    45.3070   -41.9990 0 CHG=0 CFG=0
M  V30 3746 H     -26.9210    44.8560   -44.6110 0 CHG=0 CFG=0
M  V30 3747 H     -28.3740    43.1260   -44.1700 0 CHG=0 CFG=0
M  V30 3748 H     -26.9230    42.7450   -43.6980 0 CHG=0 CFG=0
M  V30 3749 H     -28.0010    43.1890   -42.6440 0 CHG=0 CFG=0
M  V30 3750 N     -29.1970    45.8770   -44.5530 0 CHG=0 CFG=0
M  V30 3751 C     -30.3300    46.7740   -44.5490 0 CHG=0 CFG=2
M  V30 3752 C     -31.3820    46.1440   -43.6530 0 CHG=0 CFG=0
M  V30 3753 O     -31.7830    44.9980   -43.8640 0 CHG=0 CFG=0
M  V30 3754 C     -30.8440    46.9750   -45.9670 0 CHG=0 CFG=0
M  V30 3755 C     -31.4130    48.3130   -46.1890 0 CHG=0 CFG=0
M  V30 3756 C     -30.3530    49.4090   -46.1430 0 CHG=0 CFG=0
M  V30 3757 O     -29.1340    49.1340   -46.1930 0 CHG=0 CFG=0
M  V30 3758 O     -30.7490    50.5770   -46.0600 0 CHG=0 CFG=0
M  V30 3759 H     -29.0540    45.5110   -45.3180 0 CHG=0 CFG=0
M  V30 3760 H     -30.0700    47.6420   -44.1760 0 CHG=0 CFG=0
M  V30 3761 H     -30.1090    46.8560   -46.5880 0 CHG=0 CFG=0
M  V30 3762 H     -31.5380    46.3220   -46.1450 0 CHG=0 CFG=0
M  V30 3763 H     -31.8340    48.3370   -47.0620 0 CHG=0 CFG=0
M  V30 3764 H     -32.0680    48.4980   -45.4980 0 CHG=0 CFG=0
M  V30 3765 N     -31.7930    46.8890   -42.6320 0 CHG=0 CFG=0
M  V30 3766 C     -32.6160    46.3530   -41.5730 0 CHG=0 CFG=2
M  V30 3767 C     -33.4630    47.4810   -40.9170 0 CHG=0 CFG=0
M  V30 3768 O     -32.9900    48.5910   -40.6780 0 CHG=0 CFG=0
M  V30 3769 C     -31.6910    45.7010   -40.5570 0 CHG=0 CFG=0
M  V30 3770 C     -32.3720    44.8050   -39.5530 0 CHG=0 CFG=0
M  V30 3771 C     -32.7560    43.5410   -39.9030 0 CHG=0 CFG=0
M  V30 3772 C     -32.5850    45.2150   -38.2670 0 CHG=0 CFG=0
M  V30 3773 C     -33.3570    42.7380   -39.0690 0 CHG=0 CFG=0
M  V30 3774 C     -33.1820    44.3810   -37.3710 0 CHG=0 CFG=0
M  V30 3775 C     -33.5710    43.1340   -37.7910 0 CHG=0 CFG=0
M  V30 3776 O     -34.1760    42.2450   -36.9370 0 CHG=0 CFG=0
M  V30 3777 H     -31.6020    47.7210   -42.5350 0 CHG=0 CFG=0
M  V30 3778 H     -33.2220    45.6720   -41.9330 0 CHG=0 CFG=0
M  V30 3779 H     -31.0400    45.1620   -41.0350 0 CHG=0 CFG=0
M  V30 3780 H     -31.2340    46.3990   -40.0630 0 CHG=0 CFG=0
M  V30 3781 H     -32.6200    43.2580   -40.7790 0 CHG=0 CFG=0
M  V30 3782 H     -32.3180    46.0650   -38.0010 0 CHG=0 CFG=0
M  V30 3783 H     -33.6070    41.8850   -39.3420 0 CHG=0 CFG=0
M  V30 3784 H     -33.3370    44.6570   -36.4970 0 CHG=0 CFG=0
M  V30 3785 H     -34.8770    42.5620   -36.6520 0 CHG=0 CFG=0
M  V30 3786 N     -34.7070    47.1720   -40.5970 0 CHG=0 CFG=0
M  V30 3787 C     -35.6500    48.1660   -40.1180 0 CHG=0 CFG=2
M  V30 3788 C     -35.8330    48.0630   -38.6260 0 CHG=0 CFG=0
M  V30 3789 O     -36.3320    47.0640   -38.1590 0 CHG=0 CFG=0
M  V30 3790 C     -37.0060    47.9300   -40.7930 0 CHG=0 CFG=0
M  V30 3791 C     -38.1050    48.8510   -40.3390 0 CHG=0 CFG=0
M  V30 3792 C     -38.9480    49.3360   -41.5130 0 CHG=0 CFG=0
M  V30 3793 C     -39.6520    48.1830   -42.2400 0 CHG=0 CFG=0
M  V30 3794 N     -40.5220    48.6730   -43.3630 0 CHG=1 CFG=0
M  V30 3795 H     -35.0350    46.3790   -40.6480 0 CHG=0 CFG=0
M  V30 3796 H     -35.3320    49.0660   -40.3410 0 CHG=0 CFG=0
M  V30 3797 H     -36.9010    48.0500   -41.7500 0 CHG=0 CFG=0
M  V30 3798 H     -37.2900    47.0210   -40.6080 0 CHG=0 CFG=0
M  V30 3799 H     -38.6860    48.3760   -39.7230 0 CHG=0 CFG=0
M  V30 3800 H     -37.7150    49.6250   -39.9030 0 CHG=0 CFG=0
M  V30 3801 H     -39.6280    49.9460   -41.1850 0 CHG=0 CFG=0
M  V30 3802 H     -38.3730    49.7890   -42.1500 0 CHG=0 CFG=0
M  V30 3803 H     -38.9840    47.5870   -42.6130 0 CHG=0 CFG=0
M  V30 3804 H     -40.2120    47.7040   -41.6100 0 CHG=0 CFG=0
M  V30 3805 H     -40.9170    47.9830   -43.7650 0 CHG=0 CFG=0
M  V30 3806 H     -41.1490    49.2190   -43.0450 0 CHG=0 CFG=0
M  V30 3807 H     -40.0300    49.1130   -43.9600 0 CHG=0 CFG=0
M  V30 3808 N     -35.4880    49.1060   -37.8850 0 CHG=0 CFG=0
M  V30 3809 C     -35.6770    49.1170   -36.4360 0 CHG=0 CFG=2
M  V30 3810 C     -36.9490    49.8600   -36.0330 0 CHG=0 CFG=0
M  V30 3811 O     -37.1230    51.0260   -36.3590 0 CHG=0 CFG=0
M  V30 3812 C     -34.4830    49.8070   -35.7620 0 CHG=0 CFG=0
M  V30 3813 C     -33.1600    49.0980   -36.0400 0 CHG=0 CFG=0
M  V30 3814 C     -31.9590    49.9640   -35.6370 0 CHG=0 CFG=0
M  V30 3815 C     -33.1180    47.7170   -35.3370 0 CHG=0 CFG=0
M  V30 3816 H     -35.1390    49.8270   -38.1970 0 CHG=0 CFG=0
M  V30 3817 H     -35.7340    48.1970   -36.1050 0 CHG=0 CFG=0
M  V30 3818 H     -34.4130    50.7150   -36.0960 0 CHG=0 CFG=0
M  V30 3819 H     -34.6240    49.8160   -34.8030 0 CHG=0 CFG=0
M  V30 3820 H     -33.0940    48.9390   -36.9950 0 CHG=0 CFG=0
M  V30 3821 H     -31.1500    49.4840   -35.8270 0 CHG=0 CFG=0
M  V30 3822 H     -31.9810    50.7820   -36.1400 0 CHG=0 CFG=0
M  V30 3823 H     -32.0140    50.1550   -34.6980 0 CHG=0 CFG=0
M  V30 3824 H     -32.2780    47.2950   -35.5280 0 CHG=0 CFG=0
M  V30 3825 H     -33.2120    47.8460   -34.3900 0 CHG=0 CFG=0
M  V30 3826 H     -33.8390    47.1770   -35.6670 0 CHG=0 CFG=0
M  V30 3827 N     -37.8160    49.1900   -35.2850 0 CHG=0 CFG=0
M  V30 3828 C     -39.0710    49.7780   -34.8250 0 CHG=0 CFG=2
M  V30 3829 C     -39.0820    50.0070   -33.3320 0 CHG=0 CFG=0
M  V30 3830 O     -38.5220    49.2320   -32.5780 0 CHG=0 CFG=0
M  V30 3831 C     -40.2330    48.8640   -35.2040 0 CHG=0 CFG=0
M  V30 3832 C     -40.1040    48.3900   -36.6310 0 CHG=0 CFG=0
M  V30 3833 C     -41.4270    48.0500   -37.2960 0 CHG=0 CFG=0
M  V30 3834 O     -41.9430    46.9410   -37.1380 0 CHG=0 CFG=0
M  V30 3835 N     -41.9650    48.9950   -38.0760 0 CHG=0 CFG=0
M  V30 3836 H     -37.6990    48.3780   -35.0250 0 CHG=0 CFG=0
M  V30 3837 H     -39.2030    50.6420   -35.2680 0 CHG=0 CFG=0
M  V30 3838 H     -40.2340    48.0870   -34.6230 0 CHG=0 CFG=0
M  V30 3839 H     -41.0670    49.3510   -35.1180 0 CHG=0 CFG=0
M  V30 3840 H     -39.6820    49.0900   -37.1540 0 CHG=0 CFG=0
M  V30 3841 H     -39.5520    47.5930   -36.6450 0 CHG=0 CFG=0
M  V30 3842 H     -41.5620    49.7480   -38.1790 0 CHG=0 CFG=0
M  V30 3843 H     -42.7130    48.8490   -38.4740 0 CHG=0 CFG=0
M  V30 3844 N     -39.7520    51.0690   -32.9130 0 CHG=0 CFG=0
M  V30 3845 C     -39.9360    51.3380   -31.5060 0 CHG=0 CFG=2
M  V30 3846 C     -40.6300    50.1500   -30.8710 0 CHG=0 CFG=0
M  V30 3847 O     -41.3880    49.4270   -31.5340 0 CHG=0 CFG=0
M  V30 3848 C     -40.7770    52.5780   -31.3000 0 CHG=0 CFG=0
M  V30 3849 C     -40.3470    53.7270   -32.1580 0 CHG=0 CFG=0
M  V30 3850 C     -40.9710    55.0280   -31.7340 0 CHG=0 CFG=0
M  V30 3851 O     -41.0770    55.3230   -30.5350 0 CHG=0 CFG=0
M  V30 3852 N     -41.3780    55.8330   -32.7150 0 CHG=0 CFG=0
M  V30 3853 H     -40.1130    51.6520   -33.4320 0 CHG=0 CFG=0
M  V30 3854 H     -39.0660    51.4680   -31.0730 0 CHG=0 CFG=0
M  V30 3855 H     -41.7000    52.3730   -31.5160 0 CHG=0 CFG=0
M  V30 3856 H     -40.7090    52.8560   -30.3730 0 CHG=0 CFG=0
M  V30 3857 H     -39.3830    53.8230   -32.1000 0 CHG=0 CFG=0
M  V30 3858 H     -40.6090    53.5530   -33.0750 0 CHG=0 CFG=0
M  V30 3859 H     -41.2770    55.5960   -33.5360 0 CHG=0 CFG=0
M  V30 3860 H     -41.7420    56.5900   -32.5280 0 CHG=0 CFG=0
M  V30 3861 N     -40.3130    49.9250   -29.5970 0 CHG=0 CFG=0
M  V30 3862 C     -40.7700    48.7450   -28.8750 0 CHG=0 CFG=0
M  V30 3863 C     -40.2750    47.3530   -29.2960 0 CHG=0 CFG=0
M  V30 3864 O     -40.8330    46.3680   -28.8740 0 CHG=0 CFG=0
M  V30 3865 H     -39.8260    50.4510   -29.1230 0 CHG=0 CFG=0
M  V30 3866 H     -40.5310    48.8570   -27.9410 0 CHG=0 CFG=0
M  V30 3867 H     -41.7390    48.7250   -28.9220 0 CHG=0 CFG=0
M  V30 3868 N     -39.2240    47.2320   -30.0930 0 CHG=0 CFG=0
M  V30 3869 C     -38.8560    45.9000   -30.5600 0 CHG=0 CFG=2
M  V30 3870 C     -37.4870    45.4600   -30.1100 0 CHG=0 CFG=0
M  V30 3871 O     -37.1490    44.2850   -30.2250 0 CHG=0 CFG=0
M  V30 3872 C     -38.9280    45.7830   -32.0840 0 CHG=0 CFG=2
M  V30 3873 O     -38.0580    46.7480   -32.6950 0 CHG=0 CFG=0
M  V30 3874 C     -40.3420    46.0280   -32.5480 0 CHG=0 CFG=0
M  V30 3875 H     -38.7240    47.8740   -30.3710 0 CHG=0 CFG=0
M  V30 3876 H     -39.5000    45.2610   -30.1900 0 CHG=0 CFG=0
M  V30 3877 H     -38.6640    44.8900   -32.3550 0 CHG=0 CFG=0
M  V30 3878 H     -38.2810    47.5060   -32.4760 0 CHG=0 CFG=0
M  V30 3879 H     -40.3910    45.9550   -33.5040 0 CHG=0 CFG=0
M  V30 3880 H     -40.9320    45.3800   -32.1550 0 CHG=0 CFG=0
M  V30 3881 H     -40.6250    46.9070   -32.2870 0 CHG=0 CFG=0
M  V30 3882 N     -36.7200    46.3930   -29.5750 0 CHG=0 CFG=0
M  V30 3883 C     -35.2970    46.1880   -29.3670 0 CHG=0 CFG=2
M  V30 3884 C     -34.8650    47.1960   -28.3410 0 CHG=0 CFG=0
M  V30 3885 O     -35.6220    48.0830   -28.0150 0 CHG=0 CFG=0
M  V30 3886 C     -34.5110    46.3710   -30.6910 0 CHG=0 CFG=0
M  V30 3887 C     -34.3820    47.8130   -31.1610 0 CHG=0 CFG=0
M  V30 3888 C     -35.4370    48.4650   -31.7700 0 CHG=0 CFG=0
M  V30 3889 C     -33.1970    48.4890   -31.0340 0 CHG=0 CFG=0
M  V30 3890 C     -35.3160    49.7770   -32.2050 0 CHG=0 CFG=0
M  V30 3891 C     -33.0610    49.8030   -31.4920 0 CHG=0 CFG=0
M  V30 3892 C     -34.1300    50.4420   -32.0710 0 CHG=0 CFG=0
M  V30 3893 H     -37.0020    47.1640   -29.3200 0 CHG=0 CFG=0
M  V30 3894 H     -35.1330    45.2860   -29.0200 0 CHG=0 CFG=0
M  V30 3895 H     -33.6150    46.0200   -30.5700 0 CHG=0 CFG=0
M  V30 3896 H     -34.9640    45.8740   -31.3900 0 CHG=0 CFG=0
M  V30 3897 H     -36.2510    48.0250   -31.8660 0 CHG=0 CFG=0
M  V30 3898 H     -32.4680    48.0650   -30.6420 0 CHG=0 CFG=0
M  V30 3899 H     -36.0400    50.2000   -32.6060 0 CHG=0 CFG=0
M  V30 3900 H     -32.2520    50.2510   -31.3860 0 CHG=0 CFG=0
M  V30 3901 H     -34.0490    51.3190   -32.3690 0 CHG=0 CFG=0
M  V30 3902 N     -33.6510    47.0700   -27.8300 0 CHG=0 CFG=0
M  V30 3903 C     -33.1650    47.9850   -26.8100 0 CHG=0 CFG=2
M  V30 3904 C     -32.2550    49.0470   -27.4110 0 CHG=0 CFG=0
M  V30 3905 O     -32.5200    50.2420   -27.2810 0 CHG=0 CFG=0
M  V30 3906 C     -32.4120    47.1850   -25.7560 0 CHG=0 CFG=0
M  V30 3907 C     -32.2350    47.7750   -24.3710 0 CHG=0 CFG=0
M  V30 3908 C     -33.5730    47.8430   -23.6580 0 CHG=0 CFG=0
M  V30 3909 C     -31.2520    46.9020   -23.6010 0 CHG=0 CFG=0
M  V30 3910 H     -33.0870    46.4610   -28.0570 0 CHG=0 CFG=0
M  V30 3911 H     -33.9250    48.4310   -26.3810 0 CHG=0 CFG=0
M  V30 3912 H     -32.8740    46.3400   -25.6420 0 CHG=0 CFG=0
M  V30 3913 H     -31.5220    47.0110   -26.1000 0 CHG=0 CFG=0
M  V30 3914 H     -31.8710    48.6710   -24.4390 0 CHG=0 CFG=0
M  V30 3915 H     -33.4420    48.2180   -22.7840 0 CHG=0 CFG=0
M  V30 3916 H     -34.1700    48.3970   -24.1670 0 CHG=0 CFG=0
M  V30 3917 H     -33.9320    46.9560   -23.5830 0 CHG=0 CFG=0
M  V30 3918 H     -31.1320    47.2670   -22.7210 0 CHG=0 CFG=0
M  V30 3919 H     -31.6050    46.0110   -23.5410 0 CHG=0 CFG=0
M  V30 3920 H     -30.4130    46.8900   -24.0670 0 CHG=0 CFG=0
M  V30 3921 N     -31.1510    48.6200   -28.0190 0 CHG=0 CFG=0
M  V30 3922 C     -30.3140    49.5320   -28.7750 0 CHG=0 CFG=2
M  V30 3923 C     -29.6440    48.7750   -29.9000 0 CHG=0 CFG=0
M  V30 3924 O     -29.7870    47.5700   -29.9700 0 CHG=0 CFG=0
M  V30 3925 C     -29.3060    50.2480   -27.8820 0 CHG=0 CFG=0
M  V30 3926 S     -28.1930    49.1700   -26.9460 0 CHG=0 CFG=0
M  V30 3927 H     -30.8690    47.8070   -28.0070 0 CHG=0 CFG=0
M  V30 3928 H     -30.8870    50.2160   -29.1800 0 CHG=0 CFG=0
M  V30 3929 H     -28.7560    50.8220   -28.4380 0 CHG=0 CFG=0
M  V30 3930 H     -29.7940    50.7890   -27.2410 0 CHG=0 CFG=0
M  V30 3931 H     -27.5580    48.5020   -27.7150 0 CHG=0 CFG=0
M  V30 3932 N     -28.9570    49.4910   -30.7860 0 CHG=0 CFG=0
M  V30 3933 C     -28.3450    48.9360   -31.9750 0 CHG=0 CFG=2
M  V30 3934 C     -27.1800    49.7900   -32.4560 0 CHG=0 CFG=0
M  V30 3935 O     -27.0420    50.9210   -32.0250 0 CHG=0 CFG=0
M  V30 3936 C     -29.3540    48.8200   -33.0470 0 CHG=0 CFG=0
M  V30 3937 H     -28.8310    50.3390   -30.7090 0 CHG=0 CFG=0
M  V30 3938 H     -28.0060    48.0390   -31.7740 0 CHG=0 CFG=0
M  V30 3939 H     -28.9370    48.4510   -33.8300 0 CHG=0 CFG=0
M  V30 3940 H     -30.0620    48.2440   -32.7500 0 CHG=0 CFG=0
M  V30 3941 H     -29.7030    49.6930   -33.2430 0 CHG=0 CFG=0
M  V30 3942 N     -26.3150    49.2260   -33.2970 0 CHG=0 CFG=0
M  V30 3943 C     -25.2720    49.9830   -33.9800 0 CHG=0 CFG=2
M  V30 3944 C     -25.4280    49.9020   -35.5160 0 CHG=0 CFG=0
M  V30 3945 O     -25.7340    48.8520   -36.0960 0 CHG=0 CFG=0
M  V30 3946 C     -23.8500    49.4760   -33.6800 0 CHG=0 CFG=0
M  V30 3947 C     -23.5550    49.3560   -32.2360 0 CHG=0 CFG=0
M  V30 3948 O     -23.2400    48.2570   -31.7770 0 CHG=0 CFG=0
M  V30 3949 N     -23.6090    50.4740   -31.4920 0 CHG=0 CFG=0
M  V30 3950 H     -26.3130    48.3880   -33.4900 0 CHG=0 CFG=0
M  V30 3951 H     -25.3280    50.9250   -33.7140 0 CHG=0 CFG=0
M  V30 3952 H     -23.7390    48.5990   -34.0800 0 CHG=0 CFG=0
M  V30 3953 H     -23.2090    50.0960   -34.0640 0 CHG=0 CFG=0
M  V30 3954 H     -23.8100    51.2250   -31.8590 0 CHG=0 CFG=0
M  V30 3955 H     -23.4430    50.4390   -30.6490 0 CHG=0 CFG=0
M  V30 3956 N     -25.1730    51.0110   -36.1750 0 CHG=0 CFG=0
M  V30 3957 C     -25.2190    51.0370   -37.5900 0 CHG=0 CFG=2
M  V30 3958 C     -23.7760    51.2080   -37.9990 0 CHG=0 CFG=0
M  V30 3959 O     -23.0160    51.9160   -37.3540 0 CHG=0 CFG=0
M  V30 3960 C     -26.0650    52.2340   -38.0560 0 CHG=0 CFG=0
M  V30 3961 C     -25.4640    53.0250   -39.2530 0 CHG=0 CFG=0
M  V30 3962 C     -25.8990    54.4770   -39.2430 0 CHG=0 CFG=0
M  V30 3963 O     -27.0960    54.7500   -39.5190 0 CHG=0 CFG=0
M  V30 3964 O     -25.0580    55.3540   -38.9400 0 CHG=0 CFG=0
M  V30 3965 H     -24.9700    51.7630   -35.8110 0 CHG=0 CFG=0
M  V30 3966 H     -25.5790    50.2000   -37.9510 0 CHG=0 CFG=0
M  V30 3967 H     -26.9380    51.9100   -38.3270 0 CHG=0 CFG=0
M  V30 3968 H     -26.1630    52.8520   -37.3150 0 CHG=0 CFG=0
M  V30 3969 H     -24.4960    52.9990   -39.2000 0 CHG=0 CFG=0
M  V30 3970 H     -25.7650    52.6250   -40.0840 0 CHG=0 CFG=0
M  V30 3971 N     -23.4080    50.6230   -39.1180 0 CHG=0 CFG=0
M  V30 3972 C     -22.1010    50.8600   -39.6470 0 CHG=0 CFG=2
M  V30 3973 C     -22.1970    51.1910   -41.1230 0 CHG=0 CFG=0
M  V30 3974 O     -22.7450    50.3980   -41.8890 0 CHG=0 CFG=0
M  V30 3975 C     -21.2750    49.5960   -39.4840 0 CHG=0 CFG=0
M  V30 3976 C     -19.8810    49.7330   -40.0440 0 CHG=0 CFG=0
M  V30 3977 C     -18.8650    50.2960   -39.2690 0 CHG=0 CFG=0
M  V30 3978 C     -19.5800    49.3300   -41.3440 0 CHG=0 CFG=0
M  V30 3979 C     -17.6010    50.4230   -39.7500 0 CHG=0 CFG=0
M  V30 3980 C     -18.2940    49.4640   -41.8350 0 CHG=0 CFG=0
M  V30 3981 C     -17.3010    50.0210   -41.0290 0 CHG=0 CFG=0
M  V30 3982 O     -15.9840    50.1610   -41.4500 0 CHG=0 CFG=0
M  V30 3983 H     -23.8970    50.0910   -39.5840 0 CHG=0 CFG=0
M  V30 3984 H     -21.6660    51.5990   -39.1720 0 CHG=0 CFG=0
M  V30 3985 H     -21.2000    49.3880   -38.5390 0 CHG=0 CFG=0
M  V30 3986 H     -21.7160    48.8690   -39.9490 0 CHG=0 CFG=0
M  V30 3987 H     -19.0520    50.5690   -38.4000 0 CHG=0 CFG=0
M  V30 3988 H     -20.2430    48.9570   -41.8780 0 CHG=0 CFG=0
M  V30 3989 H     -16.9360    50.7900   -39.2120 0 CHG=0 CFG=0
M  V30 3990 H     -18.0920    49.1830   -42.6990 0 CHG=0 CFG=0
M  V30 3991 H     -15.4870    49.7220   -40.9670 0 CHG=0 CFG=0
M  V30 3992 N     -21.6670    52.3510   -41.5130 0 CHG=0 CFG=0
M  V30 3993 C     -21.6790    52.7620   -42.9100 0 CHG=0 CFG=2
M  V30 3994 C     -20.2940    52.8430   -43.4850 0 CHG=0 CFG=0
M  V30 3995 O     -19.4580    53.5600   -42.9700 0 CHG=0 CFG=0
M  V30 3996 C     -22.3010    54.1350   -43.0920 0 CHG=0 CFG=2
M  V30 3997 O     -23.6910    54.0820   -42.7540 0 CHG=0 CFG=0
M  V30 3998 C     -22.2160    54.5280   -44.5280 0 CHG=0 CFG=0
M  V30 3999 H     -21.2940    52.9180   -40.9830 0 CHG=0 CFG=0
M  V30 4000 H     -22.1960    52.1150   -43.4350 0 CHG=0 CFG=0
M  V30 4001 H     -21.8430    54.7930   -42.5460 0 CHG=0 CFG=0
M  V30 4002 H     -23.7810    53.8470   -41.9730 0 CHG=0 CFG=0
M  V30 4003 H     -22.6070    55.3960   -44.6540 0 CHG=0 CFG=0
M  V30 4004 H     -21.2980    54.5560   -44.8060 0 CHG=0 CFG=0
M  V30 4005 H     -22.6870    53.8920   -45.0700 0 CHG=0 CFG=0
M  V30 4006 N     -20.0520    52.1370   -44.5790 0 CHG=0 CFG=0
M  V30 4007 C     -18.7400    52.1560   -45.2060 0 CHG=0 CFG=0
M  V30 4008 C     -18.4090    50.7740   -45.7160 0 CHG=0 CFG=0
M  V30 4009 O     -19.3010    49.9820   -45.9520 0 CHG=0 CFG=0
M  V30 4010 H     -20.6290    51.6390   -44.9770 0 CHG=0 CFG=0
M  V30 4011 H     -18.7360    52.7790   -45.9500 0 CHG=0 CFG=0
M  V30 4012 H     -18.0670    52.4270   -44.5620 0 CHG=0 CFG=0
M  V30 4013 N     -17.1290    50.4710   -45.8950 0 CHG=0 CFG=0
M  V30 4014 C     -16.7340    49.0860   -46.1290 0 CHG=0 CFG=2
M  V30 4015 C     -15.9450    48.5560   -44.9290 0 CHG=0 CFG=0
M  V30 4016 O     -15.8040    49.2280   -43.8900 0 CHG=0 CFG=0
M  V30 4017 C     -15.9220    48.9590   -47.4170 0 CHG=0 CFG=0
M  V30 4018 C     -14.7670    49.9290   -47.4720 0 CHG=0 CFG=0
M  V30 4019 O     -13.8760    49.9200   -46.6150 0 CHG=0 CFG=0
M  V30 4020 N     -14.7650    50.7660   -48.4820 0 CHG=0 CFG=0
M  V30 4021 H     -16.4800    51.0360   -45.8870 0 CHG=0 CFG=0
M  V30 4022 H     -17.5400    48.5370   -46.2250 0 CHG=0 CFG=0
M  V30 4023 H     -15.5620    48.0600   -47.4770 0 CHG=0 CFG=0
M  V30 4024 H     -16.5000    49.1370   -48.1750 0 CHG=0 CFG=0
M  V30 4025 H     -15.3980    50.7390   -49.0630 0 CHG=0 CFG=0
M  V30 4026 H     -14.1300    51.3410   -48.5630 0 CHG=0 CFG=0
M  V30 4027 N     -15.4040    47.3610   -45.0880 0 CHG=0 CFG=0
M  V30 4028 C     -14.6830    46.7180   -44.0180 0 CHG=0 CFG=2
M  V30 4029 C     -13.5070    47.5520   -43.5140 0 CHG=0 CFG=0
M  V30 4030 O     -13.2550    47.5830   -42.3020 0 CHG=0 CFG=0
M  V30 4031 C     -14.1630    45.3630   -44.4680 0 CHG=0 CFG=0
M  V30 4032 C     -13.7540    44.5440   -43.3060 0 CHG=0 CFG=0
M  V30 4033 C     -14.6820    43.7170   -42.6790 0 CHG=0 CFG=0
M  V30 4034 C     -12.4680    44.6110   -42.7950 0 CHG=0 CFG=0
M  V30 4035 C     -14.3450    42.9730   -41.5890 0 CHG=0 CFG=0
M  V30 4036 C     -12.1080    43.8590   -41.6910 0 CHG=0 CFG=0
M  V30 4037 C     -13.0450    43.0360   -41.0820 0 CHG=0 CFG=0
M  V30 4038 O     -12.7220    42.2580   -39.9690 0 CHG=0 CFG=0
M  V30 4039 H     -15.4440    46.9010   -45.8130 0 CHG=0 CFG=0
M  V30 4040 H     -15.2940    46.5730   -43.2660 0 CHG=0 CFG=0
M  V30 4041 H     -14.8640    44.8910   -44.9440 0 CHG=0 CFG=0
M  V30 4042 H     -13.3910    45.4890   -45.0410 0 CHG=0 CFG=0
M  V30 4043 H     -15.5500    43.6730   -43.0090 0 CHG=0 CFG=0
M  V30 4044 H     -11.8400    45.1650   -43.1990 0 CHG=0 CFG=0
M  V30 4045 H     -14.9770    42.4200   -41.1880 0 CHG=0 CFG=0
M  V30 4046 H     -11.2410    43.9050   -41.3580 0 CHG=0 CFG=0
M  V30 4047 H     -12.4790    42.7390   -39.3520 0 CHG=0 CFG=0
M  V30 4048 N     -12.7760    48.1950   -44.4290 0 CHG=0 CFG=0
M  V30 4049 C     -11.5340    48.8690   -44.0500 0 CHG=0 CFG=2
M  V30 4050 C     -11.8160    50.1840   -43.3820 0 CHG=0 CFG=0
M  V30 4051 O     -11.1120    50.5730   -42.4730 0 CHG=0 CFG=0
M  V30 4052 C     -10.6380    49.1370   -45.2490 0 CHG=0 CFG=0
M  V30 4053 C      -9.8380    47.9280   -45.7390 0 CHG=0 CFG=0
M  V30 4054 C     -10.5100    47.1610   -46.9060 0 CHG=0 CFG=0
M  V30 4055 O     -11.7620    47.1140   -47.0490 0 CHG=0 CFG=0
M  V30 4056 N      -9.6700    46.5470   -47.7390 0 CHG=0 CFG=0
M  V30 4057 H     -12.9740    48.2540   -45.2640 0 CHG=0 CFG=0
M  V30 4058 H     -11.0410    48.3050   -43.4190 0 CHG=0 CFG=0
M  V30 4059 H     -11.1910    49.4400   -45.9860 0 CHG=0 CFG=0
M  V30 4060 H     -10.0040    49.8320   -45.0120 0 CHG=0 CFG=0
M  V30 4061 H      -8.9690    48.2320   -46.0450 0 CHG=0 CFG=0
M  V30 4062 H      -9.7270    47.3080   -45.0010 0 CHG=0 CFG=0
M  V30 4063 H      -8.8210    46.5950   -47.6070 0 CHG=0 CFG=0
M  V30 4064 H      -9.9760    46.1030   -48.4090 0 CHG=0 CFG=0
M  V30 4065 N     -12.8460    50.8860   -43.8290 0 CHG=0 CFG=0
M  V30 4066 C     -13.0460    52.2240   -43.3160 0 CHG=0 CFG=1
M  V30 4067 C     -12.2420    53.2200   -44.1730 0 CHG=0 CFG=0
M  V30 4068 S     -12.6380    54.9220   -43.7620 0 CHG=0 CFG=0
M  V30 4069 C     -14.5270    52.5320   -43.3090 0 CHG=0 CFG=0
M  V30 4070 O     -15.2510    52.1250   -44.2080 0 CHG=0 CFG=0
M  V30 4071 O     -12.1200    55.3090   -42.0610 0 CHG=0 CFG=0
M  V30 4072 H     -13.5158    50.4727   -44.5538 0 CHG=0 CFG=0
M  V30 4073 H     -12.6753    52.2650   -42.2918 0 CHG=0 CFG=0
M  V30 4074 H     -11.1783    53.0540   -44.0024 0 CHG=0 CFG=0
M  V30 4075 H     -12.4731    53.0478   -45.2242 0 CHG=0 CFG=0
M  V30 4076 H     -12.6178    54.6732   -41.3898 0 CHG=0 CFG=0
M  V30 4077 N     -15.0050    53.2130   -42.2750 0 CHG=0 CFG=0
M  V30 4078 C     -16.4280    53.4150   -42.1520 0 CHG=0 CFG=0
M  V30 4079 C     -16.7670    54.0950   -40.8680 0 CHG=0 CFG=0
M  V30 4080 O     -15.8870    54.4720   -40.1090 0 CHG=0 CFG=0
M  V30 4081 H     -14.5320    53.5600   -41.6460 0 CHG=0 CFG=0
M  V30 4082 H     -16.7450    53.9630   -42.8880 0 CHG=0 CFG=0
M  V30 4083 H     -16.8830    52.5600   -42.1820 0 CHG=0 CFG=0
M  V30 4084 N     -18.0570    54.2270   -40.6120 0 CHG=0 CFG=0
M  V30 4085 C     -18.5030    55.0410   -39.5000 0 CHG=0 CFG=2
M  V30 4086 C     -19.6000    54.3500   -38.7440 0 CHG=0 CFG=0
M  V30 4087 O     -20.5730    53.8740   -39.3540 0 CHG=0 CFG=0
M  V30 4088 C     -19.0090    56.3900   -39.9930 0 CHG=0 CFG=0
M  V30 4089 C     -19.3700    57.3240   -38.8950 0 CHG=0 CFG=0
M  V30 4090 N     -18.5780    57.4920   -37.7790 0 CHG=0 CFG=0
M  V30 4091 C     -20.4370    58.1360   -38.7200 0 CHG=0 CFG=0
M  V30 4092 C     -19.1390    58.3680   -36.9650 0 CHG=0 CFG=0
M  V30 4093 N     -20.2710    58.7740   -37.5090 0 CHG=1 CFG=0
M  V30 4094 H     -18.6890    53.8580   -41.0630 0 CHG=0 CFG=0
M  V30 4095 H     -17.7530    55.1950   -38.8880 0 CHG=0 CFG=0
M  V30 4096 H     -18.3150    56.8110   -40.5250 0 CHG=0 CFG=0
M  V30 4097 H     -19.8010    56.2490   -40.5360 0 CHG=0 CFG=0
M  V30 4098 H     -17.8330    57.0880   -37.6340 0 CHG=0 CFG=0
M  V30 4099 H     -21.1520    58.2410   -39.3050 0 CHG=0 CFG=0
M  V30 4100 H     -18.7960    58.6510   -36.1480 0 CHG=0 CFG=0
M  V30 4101 H     -20.8120    59.3480   -37.1680 0 CHG=0 CFG=0
M  V30 4102 N     -19.4430    54.2740   -37.4180 0 CHG=0 CFG=0
M  V30 4103 C     -20.5270    53.7600   -36.5810 0 CHG=0 CFG=2
M  V30 4104 C     -21.3450    54.9160   -36.0300 0 CHG=0 CFG=0
M  V30 4105 O     -20.7960    55.9790   -35.6960 0 CHG=0 CFG=0
M  V30 4106 C     -20.0230    53.0150   -35.3520 0 CHG=0 CFG=0
M  V30 4107 C     -19.6150    51.5770   -35.4690 0 CHG=0 CFG=0
M  V30 4108 C     -20.5400    50.5630   -35.3730 0 CHG=0 CFG=0
M  V30 4109 C     -18.2620    51.2310   -35.5420 0 CHG=0 CFG=0
M  V30 4110 C     -20.1360    49.2310   -35.3930 0 CHG=0 CFG=0
M  V30 4111 C     -17.8560    49.9370   -35.5650 0 CHG=0 CFG=0
M  V30 4112 C     -18.7910    48.9230   -35.4940 0 CHG=0 CFG=0
M  V30 4113 O     -18.3500    47.6090   -35.5090 0 CHG=0 CFG=0
M  V30 4114 H     -18.7350    54.5080   -36.9890 0 CHG=0 CFG=0
M  V30 4115 H     -21.1100    53.1690   -37.1030 0 CHG=0 CFG=0
M  V30 4116 H     -19.2490    53.4940   -35.0180 0 CHG=0 CFG=0
M  V30 4117 H     -20.7230    53.0490   -34.6820 0 CHG=0 CFG=0
M  V30 4118 H     -21.4440    50.7690   -35.2960 0 CHG=0 CFG=0
M  V30 4119 H     -17.6240    51.9060   -35.5800 0 CHG=0 CFG=0
M  V30 4120 H     -20.7680    48.5510   -35.3450 0 CHG=0 CFG=0
M  V30 4121 H     -16.9510    49.7330   -35.6290 0 CHG=0 CFG=0
M  V30 4122 H     -18.6770    47.2110   -36.1480 0 CHG=0 CFG=0
M  V30 4123 N     -22.6390    54.6760   -35.8660 0 CHG=0 CFG=0
M  V30 4124 C     -23.4630    55.4920   -34.9900 0 CHG=0 CFG=2
M  V30 4125 C     -24.3260    54.5330   -34.1630 0 CHG=0 CFG=0
M  V30 4126 O     -24.4830    53.3430   -34.5020 0 CHG=0 CFG=0
M  V30 4127 C     -24.3680    56.5280   -35.7650 0 CHG=0 CFG=2
M  V30 4128 O     -25.3830    55.8440   -36.4960 0 CHG=0 CFG=0
M  V30 4129 C     -23.5680    57.4140   -36.7340 0 CHG=0 CFG=0
M  V30 4130 H     -23.0660    54.0400   -36.2550 0 CHG=0 CFG=0
M  V30 4131 H     -22.8850    55.9910   -34.3750 0 CHG=0 CFG=0
M  V30 4132 H     -24.7930    57.1120   -35.1170 0 CHG=0 CFG=0
M  V30 4133 H     -25.0420    55.3320   -37.0380 0 CHG=0 CFG=0
M  V30 4134 H     -24.1570    58.0260   -37.1810 0 CHG=0 CFG=0
M  V30 4135 H     -22.9060    57.9140   -36.2510 0 CHG=0 CFG=0
M  V30 4136 H     -23.1290    56.8680   -37.3900 0 CHG=0 CFG=0
M  V30 4137 N     -24.8980    55.0510   -33.0850 0 CHG=0 CFG=0
M  V30 4138 C     -25.6470    54.2310   -32.1480 0 CHG=0 CFG=2
M  V30 4139 C     -27.1140    54.6260   -32.1280 0 CHG=0 CFG=0
M  V30 4140 O     -27.4480    55.7980   -32.1340 0 CHG=0 CFG=0
M  V30 4141 C     -25.0640    54.4100   -30.7600 0 CHG=0 CFG=0
M  V30 4142 C     -25.7410    53.5900   -29.7180 0 CHG=0 CFG=0
M  V30 4143 N     -25.2660    52.3560   -29.3240 0 CHG=0 CFG=0
M  V30 4144 C     -26.8480    53.8230   -28.9760 0 CHG=0 CFG=0
M  V30 4145 C     -26.0670    51.8550   -28.4030 0 CHG=0 CFG=0
M  V30 4146 N     -27.0310    52.7240   -28.1690 0 CHG=1 CFG=0
M  V30 4147 H     -24.8660    55.8840   -32.8730 0 CHG=0 CFG=0
M  V30 4148 H     -25.5770    53.2870   -32.4020 0 CHG=0 CFG=0
M  V30 4149 H     -24.1290    54.1530   -30.7780 0 CHG=0 CFG=0
M  V30 4150 H     -25.1460    55.3420   -30.5040 0 CHG=0 CFG=0
M  V30 4151 H     -24.5700    51.9650   -29.6440 0 CHG=0 CFG=0
M  V30 4152 H     -27.3920    54.5760   -29.0160 0 CHG=0 CFG=0
M  V30 4153 H     -25.9590    51.0350   -27.9780 0 CHG=0 CFG=0
M  V30 4154 H     -27.6680    52.6220   -27.6000 0 CHG=0 CFG=0
M  V30 4155 N     -27.9920    53.6430   -32.0670 0 CHG=0 CFG=0
M  V30 4156 C     -29.4150    53.9020   -32.0950 0 CHG=0 CFG=2
M  V30 4157 C     -30.0540    53.3000   -30.8490 0 CHG=0 CFG=0
M  V30 4158 O     -29.9140    52.1160   -30.6280 0 CHG=0 CFG=0
M  V30 4159 C     -30.0370    53.2550   -33.3570 0 CHG=0 CFG=2
M  V30 4160 C     -29.5570    53.9920   -34.6210 0 CHG=0 CFG=0
M  V30 4161 C     -31.5930    53.1750   -33.2550 0 CHG=0 CFG=0
M  V30 4162 C     -29.9460    53.2550   -35.9090 0 CHG=0 CFG=0
M  V30 4163 H     -27.7870    52.8100   -32.0080 0 CHG=0 CFG=0
M  V30 4164 H     -29.5830    54.8670   -32.1110 0 CHG=0 CFG=0
M  V30 4165 H     -29.7040    52.3460   -33.4100 0 CHG=0 CFG=0
M  V30 4166 H     -29.9590    54.8740   -34.6460 0 CHG=0 CFG=0
M  V30 4167 H     -28.5900    54.0660   -34.5970 0 CHG=0 CFG=0
M  V30 4168 H     -31.9370    52.7690   -34.0540 0 CHG=0 CFG=0
M  V30 4169 H     -31.8280    52.6440   -32.4900 0 CHG=0 CFG=0
M  V30 4170 H     -31.9450    54.0620   -33.1590 0 CHG=0 CFG=0
M  V30 4171 H     -29.6240    53.7540   -36.6630 0 CHG=0 CFG=0
M  V30 4172 H     -29.5480    52.3810   -35.9000 0 CHG=0 CFG=0
M  V30 4173 H     -30.9020    53.1800   -35.9490 0 CHG=0 CFG=0
M  V30 4174 N     -30.7800    54.1030   -30.0700 0 CHG=0 CFG=0
M  V30 4175 C     -31.4580    53.6280   -28.8550 0 CHG=0 CFG=2
M  V30 4176 C     -32.9050    54.0880   -28.8870 0 CHG=0 CFG=0
M  V30 4177 O     -33.2210    55.1570   -29.4160 0 CHG=0 CFG=0
M  V30 4178 C     -30.7640    54.1750   -27.5740 0 CHG=0 CFG=2
M  V30 4179 O     -31.3400    53.5980   -26.3930 0 CHG=0 CFG=0
M  V30 4180 C     -30.9080    55.6510   -27.4990 0 CHG=0 CFG=0
M  V30 4181 H     -30.8990    54.9410   -30.2240 0 CHG=0 CFG=0
M  V30 4182 H     -31.4400    52.6480   -28.8280 0 CHG=0 CFG=0
M  V30 4183 H     -29.8180    53.9620   -27.6060 0 CHG=0 CFG=0
M  V30 4184 H     -32.1380    53.7800   -26.3540 0 CHG=0 CFG=0
M  V30 4185 H     -30.4780    55.9820   -26.7070 0 CHG=0 CFG=0
M  V30 4186 H     -30.5040    56.0590   -28.2680 0 CHG=0 CFG=0
M  V30 4187 H     -31.8380    55.8880   -27.4720 0 CHG=0 CFG=0
M  V30 4188 N     -33.8090    53.2900   -28.3450 0 CHG=0 CFG=0
M  V30 4189 C     -35.2400    53.6430   -28.4000 0 CHG=0 CFG=2
M  V30 4190 C     -35.7480    54.0580   -27.0350 0 CHG=0 CFG=0
M  V30 4191 O     -35.8600    53.2310   -26.1700 0 CHG=0 CFG=0
M  V30 4192 C     -36.0050    52.4710   -28.8540 0 CHG=0 CFG=0
M  V30 4193 H     -33.6350    52.5500   -27.9440 0 CHG=0 CFG=0
M  V30 4194 H     -35.3800    54.3790   -29.0300 0 CHG=0 CFG=0
M  V30 4195 H     -36.9370    52.7010   -28.8890 0 CHG=0 CFG=0
M  V30 4196 H     -35.6970    52.2160   -29.7270 0 CHG=0 CFG=0
M  V30 4197 H     -35.8690    51.7500   -28.2350 0 CHG=0 CFG=0
M  V30 4198 N     -36.0370    55.3290   -26.8210 0 CHG=0 CFG=0
M  V30 4199 C     -36.6780    55.7300   -25.5760 0 CHG=0 CFG=2
M  V30 4200 C     -38.1570    56.0340   -25.8730 0 CHG=0 CFG=0
M  V30 4201 O     -38.8800    55.2020   -26.4070 0 CHG=0 CFG=0
M  V30 4202 C     -35.9320    56.9300   -24.9630 0 CHG=0 CFG=0
M  V30 4203 C     -34.3930    56.8040   -25.0760 0 CHG=0 CFG=0
M  V30 4204 C     -33.5960    57.4010   -23.8950 0 CHG=0 CFG=0
M  V30 4205 C     -32.2600    56.6300   -23.6640 0 CHG=0 CFG=0
M  V30 4206 N     -32.4440    55.2280   -23.0880 0 CHG=1 CFG=0
M  V30 4207 H     -35.8760    55.9720   -27.3680 0 CHG=0 CFG=0
M  V30 4208 H     -36.6400    54.9870   -24.9390 0 CHG=0 CFG=0
M  V30 4209 H     -36.2010    57.7390   -25.4250 0 CHG=0 CFG=0
M  V30 4210 H     -36.1590    56.9950   -24.0220 0 CHG=0 CFG=0
M  V30 4211 H     -34.1650    55.8630   -25.1360 0 CHG=0 CFG=0
M  V30 4212 H     -34.1050    57.2600   -25.8820 0 CHG=0 CFG=0
M  V30 4213 H     -33.3830    58.3280   -24.0880 0 CHG=0 CFG=0
M  V30 4214 H     -34.1270    57.3390   -23.0860 0 CHG=0 CFG=0
M  V30 4215 H     -31.7990    56.5430   -24.5130 0 CHG=0 CFG=0
M  V30 4216 H     -31.7120    57.1350   -23.0430 0 CHG=0 CFG=0
M  V30 4217 H     -31.6510    54.8380   -22.9780 0 CHG=0 CFG=0
M  V30 4218 H     -32.8550    55.2750   -22.3000 0 CHG=0 CFG=0
M  V30 4219 H     -32.9350    54.7340   -23.6420 0 CHG=0 CFG=0
M  V30 4220 N     -38.6220    57.2100   -25.4930 0 CHG=0 CFG=0
M  V30 4221 C     -39.8700    57.7640   -26.0190 0 CHG=0 CFG=2
M  V30 4222 C     -39.9940    57.5440   -27.5390 0 CHG=0 CFG=0
M  V30 4223 O     -41.0080    57.0720   -28.0620 0 CHG=0 CFG=0
M  V30 4224 C     -39.8470    59.2550   -25.7190 0 CHG=0 CFG=0
M  V30 4225 C     -38.3880    59.8040   -25.5530 0 CHG=0 CFG=0
M  V30 4226 C     -38.1210    61.0060   -26.4400 0 CHG=0 CFG=0
M  V30 4227 O     -38.9500    61.3000   -27.3380 0 CHG=0 CFG=0
M  V30 4228 O     -37.0750    61.6640   -26.2530 0 CHG=0 CFG=0
M  V30 4229 H     -38.2300    57.7210   -24.9230 0 CHG=0 CFG=0
M  V30 4230 H     -40.6390    57.3550   -25.5690 0 CHG=0 CFG=0
M  V30 4231 H     -40.2680    59.7330   -26.4510 0 CHG=0 CFG=0
M  V30 4232 H     -40.3280    59.4200   -24.8930 0 CHG=0 CFG=0
M  V30 4233 H     -38.2540    60.0750   -24.6310 0 CHG=0 CFG=0
M  V30 4234 H     -37.7570    59.1070   -25.7910 0 CHG=0 CFG=0
M  V30 4235 N     -38.9490    57.9230   -28.2560 0 CHG=0 CFG=0
M  V30 4236 C     -38.8500    57.6140   -29.6660 0 CHG=0 CFG=2
M  V30 4237 C     -37.4380    57.0640   -29.9590 0 CHG=0 CFG=0
M  V30 4238 O     -36.6180    56.9410   -29.0100 0 CHG=0 CFG=0
M  V30 4239 C     -39.1430    58.8690   -30.4750 0 CHG=0 CFG=2
M  V30 4240 O     -39.3360    58.5080   -31.8440 0 CHG=0 CFG=0
M  V30 4241 C     -38.0290    59.8900   -30.3280 0 CHG=0 CFG=0
M  V30 4242 H     -38.2790    58.3620   -27.9440 0 CHG=0 CFG=0
M  V30 4243 H     -39.5100    56.9280   -29.9010 0 CHG=0 CFG=0
M  V30 4244 H     -39.9600    59.2710   -30.1410 0 CHG=0 CFG=0
M  V30 4245 H     -39.4950    59.1770   -32.2910 0 CHG=0 CFG=0
M  V30 4246 H     -38.2320    60.6730   -30.8450 0 CHG=0 CFG=0
M  V30 4247 H     -37.9340    60.1410   -29.4060 0 CHG=0 CFG=0
M  V30 4248 H     -37.2000    59.5180   -30.6370 0 CHG=0 CFG=0
M  V30 4249 N     -37.1570    56.7330   -31.2350 0 CHG=0 CFG=0
M  V30 4250 C     -35.7960    56.3260   -31.6520 0 CHG=0 CFG=2
M  V30 4251 C     -34.8560    57.5210   -31.6430 0 CHG=0 CFG=0
M  V30 4252 O     -35.2370    58.6260   -31.9870 0 CHG=0 CFG=0
M  V30 4253 C     -35.7620    55.6340   -33.0200 0 CHG=0 CFG=0
M  V30 4254 C     -36.7280    54.4510   -33.1640 0 CHG=0 CFG=0
M  V30 4255 C     -36.6330    53.8520   -34.5150 0 CHG=0 CFG=0
M  V30 4256 C     -36.4380    53.3980   -32.1460 0 CHG=0 CFG=0
M  V30 4257 H     -37.7330    56.7350   -31.8740 0 CHG=0 CFG=0
M  V30 4258 H     -35.4550    55.6830   -30.9960 0 CHG=0 CFG=0
M  V30 4259 H     -35.9920    56.2850   -33.7020 0 CHG=0 CFG=0
M  V30 4260 H     -34.8650    55.3010   -33.1760 0 CHG=0 CFG=0
M  V30 4261 H     -37.6370    54.7610   -33.0310 0 CHG=0 CFG=0
M  V30 4262 H     -37.2480    53.1170   -34.5740 0 CHG=0 CFG=0
M  V30 4263 H     -36.8570    54.5190   -35.1680 0 CHG=0 CFG=0
M  V30 4264 H     -35.7360    53.5420   -34.6570 0 CHG=0 CFG=0
M  V30 4265 H     -37.0570    52.6730   -32.2610 0 CHG=0 CFG=0
M  V30 4266 H     -35.5390    53.0840   -32.2680 0 CHG=0 CFG=0
M  V30 4267 H     -36.5360    53.7760   -31.2690 0 CHG=0 CFG=0
M  V30 4268 N     -33.6440    57.2910   -31.1680 0 CHG=0 CFG=0
M  V30 4269 C     -32.5850    58.2920   -31.1470 0 CHG=0 CFG=2
M  V30 4270 C     -31.3880    57.7250   -31.9100 0 CHG=0 CFG=0
M  V30 4271 O     -31.1050    56.5220   -31.8390 0 CHG=0 CFG=0
M  V30 4272 C     -32.0870    58.5280   -29.7230 0 CHG=0 CFG=0
M  V30 4273 C     -32.9790    59.3080   -28.8030 0 CHG=0 CFG=0
M  V30 4274 C     -34.3520    59.1170   -28.7820 0 CHG=0 CFG=0
M  V30 4275 C     -32.4310    60.2090   -27.9140 0 CHG=0 CFG=0
M  V30 4276 C     -35.1550    59.8260   -27.9220 0 CHG=0 CFG=0
M  V30 4277 C     -33.2200    60.9210   -27.0420 0 CHG=0 CFG=0
M  V30 4278 C     -34.5820    60.7300   -27.0500 0 CHG=0 CFG=0
M  V30 4279 O     -35.3540    61.4500   -26.1670 0 CHG=0 CFG=0
M  V30 4280 H     -33.4000    56.5340   -30.8400 0 CHG=0 CFG=0
M  V30 4281 H     -32.8800    59.1350   -31.5510 0 CHG=0 CFG=0
M  V30 4282 H     -31.9380    57.6640   -29.3090 0 CHG=0 CFG=0
M  V30 4283 H     -31.2440    59.0060   -29.7740 0 CHG=0 CFG=0
M  V30 4284 H     -34.7390    58.5100   -29.3710 0 CHG=0 CFG=0
M  V30 4285 H     -31.5100    60.3410   -27.9080 0 CHG=0 CFG=0
M  V30 4286 H     -36.0760    59.6940   -27.9230 0 CHG=0 CFG=0
M  V30 4287 H     -32.8370    61.5310   -26.4540 0 CHG=0 CFG=0
M  V30 4288 H     -35.7580    60.9410   -25.6670 0 CHG=0 CFG=0
M  V30 4289 N     -30.6550    58.5830   -32.5960 0 CHG=0 CFG=0
M  V30 4290 C     -29.4450    58.1600   -33.2660 0 CHG=0 CFG=2
M  V30 4291 C     -28.3600    59.0110   -32.6390 0 CHG=0 CFG=0
M  V30 4292 O     -28.4630    60.2360   -32.6780 0 CHG=0 CFG=0
M  V30 4293 C     -29.5700    58.4390   -34.7570 0 CHG=0 CFG=0
M  V30 4294 C     -28.5680    57.7400   -35.5870 0 CHG=0 CFG=0
M  V30 4295 C     -28.7640    58.0250   -37.0650 0 CHG=0 CFG=0
M  V30 4296 N     -27.4670    58.3280   -37.6800 0 CHG=0 CFG=0
M  V30 4297 C     -26.9990    57.7570   -38.7770 0 CHG=0 CFG=0
M  V30 4298 N     -27.7390    56.8750   -39.4320 0 CHG=0 CFG=0
M  V30 4299 N     -25.7910    58.0710   -39.2290 0 CHG=0 CFG=0
M  V30 4300 H     -30.8380    59.4180   -32.6880 0 CHG=0 CFG=0
M  V30 4301 H     -29.2650    57.2100   -33.1100 0 CHG=0 CFG=0
M  V30 4302 H     -30.4490    58.1560   -35.0550 0 CHG=0 CFG=0
M  V30 4303 H     -29.4640    59.3920   -34.9060 0 CHG=0 CFG=0
M  V30 4304 H     -27.6810    58.0400   -35.3360 0 CHG=0 CFG=0
M  V30 4305 H     -28.6500    56.7840   -35.4490 0 CHG=0 CFG=0
M  V30 4306 H     -29.1400    57.2440   -37.5010 0 CHG=0 CFG=0
M  V30 4307 H     -29.3470    58.7920   -37.1750 0 CHG=0 CFG=0
M  V30 4308 H     -26.9750    58.9220   -37.3000 0 CHG=0 CFG=0
M  V30 4309 H     -28.5180    56.6620   -39.1340 0 CHG=0 CFG=0
M  V30 4310 H     -27.4380    56.5090   -40.1490 0 CHG=0 CFG=0
M  V30 4311 H     -25.3130    58.6520   -38.8120 0 CHG=0 CFG=0
M  V30 4312 H     -25.4970    57.7140   -39.9540 0 CHG=0 CFG=0
M  V30 4313 N     -27.3430    58.3940   -32.0280 0 CHG=0 CFG=0
M  V30 4314 C     -26.3040    59.1680   -31.3980 0 CHG=0 CFG=2
M  V30 4315 C     -25.0060    59.0060   -32.1670 0 CHG=0 CFG=0
M  V30 4316 O     -24.5390    57.9190   -32.3710 0 CHG=0 CFG=0
M  V30 4317 C     -26.1610    58.8030   -29.9680 0 CHG=0 CFG=2
M  V30 4318 C     -27.5190    58.8970   -29.3190 0 CHG=0 CFG=0
M  V30 4319 C     -25.1600    59.7380   -29.2800 0 CHG=0 CFG=0
M  V30 4320 C     -27.5740    58.4400   -27.8900 0 CHG=0 CFG=0
M  V30 4321 H     -27.2440    57.5420   -31.9710 0 CHG=0 CFG=0
M  V30 4322 H     -26.5540    60.1150   -31.4370 0 CHG=0 CFG=0
M  V30 4323 H     -25.8400    57.8900   -29.9030 0 CHG=0 CFG=0
M  V30 4324 H     -27.8080    59.8230   -29.3410 0 CHG=0 CFG=0
M  V30 4325 H     -28.1410    58.3510   -29.8250 0 CHG=0 CFG=0
M  V30 4326 H     -25.0810    59.4860   -28.3570 0 CHG=0 CFG=0
M  V30 4327 H     -24.3080    59.6580   -29.7160 0 CHG=0 CFG=0
M  V30 4328 H     -25.4790    60.6410   -29.3480 0 CHG=0 CFG=0
M  V30 4329 H     -28.4720    58.5370   -27.5650 0 CHG=0 CFG=0
M  V30 4330 H     -27.3070    57.5190   -27.8460 0 CHG=0 CFG=0
M  V30 4331 H     -26.9760    58.9790   -27.3660 0 CHG=0 CFG=0
M  V30 4332 N     -24.4580    60.1230   -32.6120 0 CHG=0 CFG=0
M  V30 4333 C     -23.3260    60.1550   -33.5090 0 CHG=0 CFG=2
M  V30 4334 C     -22.3360    61.0280   -32.7640 0 CHG=0 CFG=0
M  V30 4335 O     -22.2140    62.1840   -33.0580 0 CHG=0 CFG=0
M  V30 4336 C     -23.7350    60.7830   -34.8660 0 CHG=0 CFG=0
M  V30 4337 C     -22.6690    60.6040   -35.9860 0 CHG=0 CFG=0
M  V30 4338 O     -21.4990    60.2990   -35.6700 0 CHG=0 CFG=0
M  V30 4339 O     -22.9890    60.7900   -37.2000 0 CHG=0 CFG=0
M  V30 4340 H     -24.7400    60.9060   -32.3960 0 CHG=0 CFG=0
M  V30 4341 H     -22.9540    59.2590   -33.6450 0 CHG=0 CFG=0
M  V30 4342 H     -24.5560    60.3650   -35.1690 0 CHG=0 CFG=0
M  V30 4343 H     -23.8770    61.7340   -34.7410 0 CHG=0 CFG=0
M  V30 4344 N     -21.6710    60.4580   -31.7670 0 CHG=0 CFG=0
M  V30 4345 C     -20.7920    61.1920   -30.8680 0 CHG=0 CFG=0
M  V30 4346 C     -21.5030    62.3030   -30.1360 0 CHG=0 CFG=0
M  V30 4347 O     -22.3980    62.0680   -29.3250 0 CHG=0 CFG=0
M  V30 4348 H     -21.7150    59.6180   -31.5860 0 CHG=0 CFG=0
M  V30 4349 H     -20.4200    60.5820   -30.2120 0 CHG=0 CFG=0
M  V30 4350 H     -20.0610    61.5790   -31.3760 0 CHG=0 CFG=0
M  V30 4351 N     -21.1300    63.5390   -30.4330 0 CHG=0 CFG=0
M  V30 4352 C     -21.7930    64.6630   -29.7880 0 CHG=0 CFG=2
M  V30 4353 C     -23.2110    64.8760   -30.3320 0 CHG=0 CFG=0
M  V30 4354 O     -24.0190    65.5310   -29.6780 0 CHG=0 CFG=0
M  V30 4355 C     -20.9600    65.9350   -29.9410 0 CHG=0 CFG=0
M  V30 4356 H     -20.5110    63.7510   -30.9910 0 CHG=0 CFG=0
M  V30 4357 H     -21.8690    64.4720   -28.8300 0 CHG=0 CFG=0
M  V30 4358 H     -21.4170    66.6600   -29.5090 0 CHG=0 CFG=0
M  V30 4359 H     -20.1030    65.7970   -29.5320 0 CHG=0 CFG=0
M  V30 4360 H     -20.8510    66.1260   -30.8750 0 CHG=0 CFG=0
M  V30 4361 N     -23.5220    64.2800   -31.4860 0 CHG=0 CFG=0
M  V30 4362 C     -24.7320    64.6020   -32.2370 0 CHG=0 CFG=2
M  V30 4363 C     -25.9290    63.6430   -32.0520 0 CHG=0 CFG=0
M  V30 4364 O     -25.7940    62.4300   -32.0480 0 CHG=0 CFG=0
M  V30 4365 C     -24.3680    64.6770   -33.7090 0 CHG=0 CFG=0
M  V30 4366 C     -23.2050    65.5640   -33.9850 0 CHG=0 CFG=0
M  V30 4367 N     -23.2510    66.9300   -33.8050 0 CHG=0 CFG=0
M  V30 4368 C     -21.9490    65.2850   -34.4110 0 CHG=0 CFG=0
M  V30 4369 C     -22.0760    67.4550   -34.1080 0 CHG=0 CFG=0
M  V30 4370 N     -21.2690    66.4760   -34.4810 0 CHG=1 CFG=0
M  V30 4371 H     -23.0370    63.6750   -31.8580 0 CHG=0 CFG=0
M  V30 4372 H     -25.0320    65.4940   -31.9650 0 CHG=0 CFG=0
M  V30 4373 H     -24.1450    63.7870   -34.0230 0 CHG=0 CFG=0
M  V30 4374 H     -25.1290    65.0210   -34.2030 0 CHG=0 CFG=0
M  V30 4375 H     -23.9360    67.3720   -33.5330 0 CHG=0 CFG=0
M  V30 4376 H     -21.6110    64.4430   -34.6160 0 CHG=0 CFG=0
M  V30 4377 H     -21.8580    68.3580   -34.0730 0 CHG=0 CFG=0
M  V30 4378 H     -20.4510    66.5710   -34.7300 0 CHG=0 CFG=0
M  V30 4379 N     -27.1170    64.2170   -31.9350 0 CHG=0 CFG=0
M  V30 4380 C     -28.3400    63.4740   -31.6570 0 CHG=0 CFG=2
M  V30 4381 C     -29.3570    63.8450   -32.7030 0 CHG=0 CFG=0
M  V30 4382 O     -29.4590    64.9950   -33.0890 0 CHG=0 CFG=0
M  V30 4383 C     -28.8700    63.8860   -30.2910 0 CHG=0 CFG=0
M  V30 4384 C     -30.2410    63.3970   -29.8590 0 CHG=0 CFG=0
M  V30 4385 C     -30.2770    61.8750   -29.9610 0 CHG=0 CFG=0
M  V30 4386 C     -30.5810    63.8420   -28.4140 0 CHG=0 CFG=0
M  V30 4387 H     -27.2460    65.0640   -32.0160 0 CHG=0 CFG=0
M  V30 4388 H     -28.1760    62.5080   -31.6760 0 CHG=0 CFG=0
M  V30 4389 H     -28.2390    63.5740   -29.6230 0 CHG=0 CFG=0
M  V30 4390 H     -28.9000    64.8550   -30.2660 0 CHG=0 CFG=0
M  V30 4391 H     -30.9140    63.7580   -30.4560 0 CHG=0 CFG=0
M  V30 4392 H     -31.1440    61.5640   -29.6880 0 CHG=0 CFG=0
M  V30 4393 H     -30.1090    61.6190   -30.8710 0 CHG=0 CFG=0
M  V30 4394 H     -29.6010    61.5070   -29.3870 0 CHG=0 CFG=0
M  V30 4395 H     -31.4520    63.5120   -28.1830 0 CHG=0 CFG=0
M  V30 4396 H     -29.9240    63.4810   -27.8140 0 CHG=0 CFG=0
M  V30 4397 H     -30.5720    64.8010   -28.3720 0 CHG=0 CFG=0
M  V30 4398 N     -30.1120    62.8760   -33.1820 0 CHG=0 CFG=0
M  V30 4399 C     -31.2370    63.1820   -34.0130 0 CHG=0 CFG=2
M  V30 4400 C     -32.3000    62.1990   -33.6310 0 CHG=0 CFG=0
M  V30 4401 O     -31.9840    61.1990   -33.0090 0 CHG=0 CFG=0
M  V30 4402 C     -30.8630    63.0750   -35.4700 0 CHG=0 CFG=2
M  V30 4403 O     -30.4180    61.7520   -35.7590 0 CHG=0 CFG=0
M  V30 4404 C     -29.7360    64.0400   -35.7800 0 CHG=0 CFG=0
M  V30 4405 H     -29.9890    62.0370   -33.0390 0 CHG=0 CFG=0
M  V30 4406 H     -31.5570    64.0900   -33.8280 0 CHG=0 CFG=0
M  V30 4407 H     -31.6280    63.2950   -36.0260 0 CHG=0 CFG=0
M  V30 4408 H     -30.2140    61.6920   -36.5510 0 CHG=0 CFG=0
M  V30 4409 H     -29.4940    63.9760   -36.7070 0 CHG=0 CFG=0
M  V30 4410 H     -30.0140    64.9400   -35.5920 0 CHG=0 CFG=0
M  V30 4411 H     -28.9690    63.8320   -35.2420 0 CHG=0 CFG=0
M  V30 4412 N     -33.5500    62.4920   -33.9890 0 CHG=0 CFG=0
M  V30 4413 C     -34.7300    61.7340   -33.5510 0 CHG=0 CFG=2
M  V30 4414 C     -35.4970    61.1820   -34.7530 0 CHG=0 CFG=0
M  V30 4415 O     -35.5720    61.8070   -35.7750 0 CHG=0 CFG=0
M  V30 4416 C     -35.7170    62.6360   -32.8140 0 CHG=0 CFG=0
M  V30 4417 C     -35.4070    63.0280   -31.3920 0 CHG=0 CFG=0
M  V30 4418 C     -36.4630    64.0590   -30.8930 0 CHG=0 CFG=0
M  V30 4419 C     -35.8380    65.1800   -30.0310 0 CHG=0 CFG=0
M  V30 4420 N     -36.8330    66.2150   -29.5980 0 CHG=1 CFG=0
M  V30 4421 H     -33.7500    63.1500   -34.5050 0 CHG=0 CFG=0
M  V30 4422 H     -34.4650    60.9940   -32.9660 0 CHG=0 CFG=0
M  V30 4423 H     -35.8000    63.4600   -33.3190 0 CHG=0 CFG=0
M  V30 4424 H     -36.5760    62.1870   -32.8000 0 CHG=0 CFG=0
M  V30 4425 H     -35.4460    62.2440   -30.8220 0 CHG=0 CFG=0
M  V30 4426 H     -34.5300    63.4380   -31.3500 0 CHG=0 CFG=0
M  V30 4427 H     -36.8890    64.4720   -31.6600 0 CHG=0 CFG=0
M  V30 4428 H     -37.1250    63.5980   -30.3530 0 CHG=0 CFG=0
M  V30 4429 H     -35.4510    64.7860   -29.2340 0 CHG=0 CFG=0
M  V30 4430 H     -35.1490    65.6270   -30.5470 0 CHG=0 CFG=0
M  V30 4431 H     -36.4290    66.8370   -29.1060 0 CHG=0 CFG=0
M  V30 4432 H     -37.1990    66.6010   -30.3110 0 CHG=0 CFG=0
M  V30 4433 H     -37.4750    65.8340   -29.1130 0 CHG=0 CFG=0
M  V30 4434 N     -36.1250    60.0360   -34.6120 0 CHG=0 CFG=0
M  V30 4435 C     -36.9100    59.5060   -35.7000 0 CHG=0 CFG=2
M  V30 4436 C     -37.8570    58.4110   -35.2210 0 CHG=0 CFG=0
M  V30 4437 O     -37.5910    57.7350   -34.2160 0 CHG=0 CFG=0
M  V30 4438 C     -36.0010    58.9890   -36.8030 0 CHG=0 CFG=0
M  V30 4439 C     -35.3860    57.6480   -36.5330 0 CHG=0 CFG=0
M  V30 4440 S     -33.6110    57.7660   -36.3680 0 CHG=0 CFG=0
M  V30 4441 C     -33.5310    57.2320   -34.6760 0 CHG=0 CFG=0
M  V30 4442 H     -36.1140    59.5500   -33.9030 0 CHG=0 CFG=0
M  V30 4443 H     -37.4460    60.2340   -36.0780 0 CHG=0 CFG=0
M  V30 4444 H     -36.5180    58.9160   -37.6210 0 CHG=0 CFG=0
M  V30 4445 H     -35.2780    59.6240   -36.9310 0 CHG=0 CFG=0
M  V30 4446 H     -35.7450    57.2920   -35.7050 0 CHG=0 CFG=0
M  V30 4447 H     -35.5840    57.0500   -37.2700 0 CHG=0 CFG=0
M  V30 4448 H     -34.0400    57.8380   -34.1330 0 CHG=0 CFG=0
M  V30 4449 H     -33.8970    56.3460   -34.6100 0 CHG=0 CFG=0
M  V30 4450 H     -32.6140    57.2290   -34.3920 0 CHG=0 CFG=0
M  V30 4451 N     -38.9780    58.2580   -35.9210 0 CHG=0 CFG=0
M  V30 4452 C     -39.9920    57.3240   -35.4680 0 CHG=0 CFG=2
M  V30 4453 C     -39.6590    55.9100   -35.9140 0 CHG=0 CFG=0
M  V30 4454 O     -40.1400    54.9350   -35.3270 0 CHG=0 CFG=0
M  V30 4455 C     -41.3760    57.7300   -35.9770 0 CHG=0 CFG=0
M  V30 4456 O     -41.3900    57.9300   -37.3820 0 CHG=0 CFG=0
M  V30 4457 H     -39.1700    58.6770   -36.6480 0 CHG=0 CFG=0
M  V30 4458 H     -40.0160    57.3330   -34.4880 0 CHG=0 CFG=0
M  V30 4459 H     -42.0070    57.0280   -35.7550 0 CHG=0 CFG=0
M  V30 4460 H     -41.6380    58.5570   -35.5420 0 CHG=0 CFG=0
M  V30 4461 H     -42.1420    58.1460   -37.6270 0 CHG=0 CFG=0
M  V30 4462 N     -38.8290    55.7970   -36.9520 0 CHG=0 CFG=0
M  V30 4463 C     -38.4620    54.4800   -37.4730 0 CHG=0 CFG=2
M  V30 4464 C     -37.2220    54.5960   -38.3400 0 CHG=0 CFG=0
M  V30 4465 O     -36.9320    55.6720   -38.8660 0 CHG=0 CFG=0
M  V30 4466 C     -39.6200    53.9470   -38.2780 0 CHG=0 CFG=0
M  V30 4467 C     -39.3900    52.6590   -38.9460 0 CHG=0 CFG=0
M  V30 4468 C     -40.5990    52.2670   -39.7680 0 CHG=0 CFG=0
M  V30 4469 O     -41.7100    52.2660   -39.1920 0 CHG=0 CFG=0
M  V30 4470 O     -40.4440    51.9880   -40.9820 0 CHG=0 CFG=0
M  V30 4471 H     -38.4680    56.4580   -37.3670 0 CHG=0 CFG=0
M  V30 4472 H     -38.2780    53.8660   -36.7330 0 CHG=0 CFG=0
M  V30 4473 H     -40.3790    53.8350   -37.6850 0 CHG=0 CFG=0
M  V30 4474 H     -39.8400    54.5960   -38.9650 0 CHG=0 CFG=0
M  V30 4475 H     -38.6260    52.7340   -39.5390 0 CHG=0 CFG=0
M  V30 4476 H     -39.2350    51.9710   -38.2790 0 CHG=0 CFG=0
M  V30 4477 N     -36.4820    53.5030   -38.4790 0 CHG=0 CFG=0
M  V30 4478 C     -35.1840    53.5420   -39.1400 0 CHG=0 CFG=2
M  V30 4479 C     -34.9780    52.3270   -40.0360 0 CHG=0 CFG=0
M  V30 4480 O     -35.3730    51.1950   -39.7020 0 CHG=0 CFG=0
M  V30 4481 C     -34.1060    53.5800   -38.0760 0 CHG=0 CFG=0
M  V30 4482 C     -32.6690    53.4930   -38.5890 0 CHG=0 CFG=0
M  V30 4483 C     -32.0760    52.2540   -38.8360 0 CHG=0 CFG=0
M  V30 4484 C     -31.8850    54.6610   -38.7830 0 CHG=0 CFG=0
M  V30 4485 C     -30.7440    52.1630   -39.2780 0 CHG=0 CFG=0
M  V30 4486 C     -30.5730    54.5880   -39.2240 0 CHG=0 CFG=0
M  V30 4487 C     -30.0020    53.3190   -39.4630 0 CHG=0 CFG=0
M  V30 4488 O     -28.7050    53.1980   -39.8990 0 CHG=0 CFG=0
M  V30 4489 H     -36.7100    52.7230   -38.1990 0 CHG=0 CFG=0
M  V30 4490 H     -35.1150    54.3520   -39.6870 0 CHG=0 CFG=0
M  V30 4491 H     -34.1890    54.4130   -37.5860 0 CHG=0 CFG=0
M  V30 4492 H     -34.2450    52.8340   -37.4720 0 CHG=0 CFG=0
M  V30 4493 H     -32.5680    51.4770   -38.7040 0 CHG=0 CFG=0
M  V30 4494 H     -32.2630    55.4950   -38.6160 0 CHG=0 CFG=0
M  V30 4495 H     -30.3630    51.3310   -39.4420 0 CHG=0 CFG=0
M  V30 4496 H     -30.0730    55.3620   -39.3490 0 CHG=0 CFG=0
M  V30 4497 H     -28.1930    53.5240   -39.3480 0 CHG=0 CFG=0
M  V30 4498 N     -34.3840    52.5700   -41.1940 0 CHG=0 CFG=0
M  V30 4499 C     -34.0040    51.5080   -42.1030 0 CHG=0 CFG=2
M  V30 4500 C     -32.6280    51.8260   -42.6140 0 CHG=0 CFG=0
M  V30 4501 O     -32.4550    52.7370   -43.4210 0 CHG=0 CFG=0
M  V30 4502 C     -34.9330    51.4210   -43.2890 0 CHG=0 CFG=0
M  V30 4503 C     -34.6670    50.2060   -44.1080 0 CHG=0 CFG=0
M  V30 4504 C     -35.1510    50.3280   -45.5160 0 CHG=0 CFG=0
M  V30 4505 C     -34.0090    50.5730   -46.4670 0 CHG=0 CFG=0
M  V30 4506 N     -34.4640    50.3170   -47.8670 0 CHG=1 CFG=0
M  V30 4507 H     -34.1880    53.3570   -41.4790 0 CHG=0 CFG=0
M  V30 4508 H     -33.9880    50.6460   -41.6370 0 CHG=0 CFG=0
M  V30 4509 H     -35.8490    51.3810   -42.9750 0 CHG=0 CFG=0
M  V30 4510 H     -34.8050    52.2010   -43.8520 0 CHG=0 CFG=0
M  V30 4511 H     -33.7110    50.0470   -44.1340 0 CHG=0 CFG=0
M  V30 4512 H     -35.1170    49.4490   -43.7020 0 CHG=0 CFG=0
M  V30 4513 H     -35.5930    49.5040   -45.7750 0 CHG=0 CFG=0
M  V30 4514 H     -35.7670    51.0740   -45.5800 0 CHG=0 CFG=0
M  V30 4515 H     -33.7190    51.4960   -46.3980 0 CHG=0 CFG=0
M  V30 4516 H     -33.2780    49.9690   -46.2620 0 CHG=0 CFG=0
M  V30 4517 H     -33.7930    50.4610   -48.4350 0 CHG=0 CFG=0
M  V30 4518 H     -34.7370    49.4750   -47.9490 0 CHG=0 CFG=0
M  V30 4519 H     -35.1370    50.8610   -48.0720 0 CHG=0 CFG=0
M  V30 4520 N     -31.6430    51.0860   -42.1490 0 CHG=0 CFG=0
M  V30 4521 C     -30.2740    51.3120   -42.5590 0 CHG=0 CFG=0
M  V30 4522 C     -29.3940    50.0990   -42.3370 0 CHG=0 CFG=0
M  V30 4523 O     -29.8810    49.0080   -42.0100 0 CHG=0 CFG=0
M  V30 4524 H     -31.7420    50.4400   -41.5900 0 CHG=0 CFG=0
M  V30 4525 H     -30.2530    51.5390   -43.5020 0 CHG=0 CFG=0
M  V30 4526 H     -29.9050    52.0550   -42.0560 0 CHG=0 CFG=0
M  V30 4527 N     -28.0880    50.2760   -42.5620 0 CHG=0 CFG=0
M  V30 4528 C     -27.1350    49.1750   -42.4370 0 CHG=0 CFG=2
M  V30 4529 C     -26.8120    48.9850   -40.9630 0 CHG=0 CFG=0
M  V30 4530 O     -26.1110    49.7920   -40.3520 0 CHG=0 CFG=0
M  V30 4531 C     -25.9060    49.6920   -43.1970 0 CHG=0 CFG=0
M  V30 4532 C     -25.9510    51.1400   -43.0320 0 CHG=0 CFG=0
M  V30 4533 C     -27.4310    51.5110   -43.0150 0 CHG=0 CFG=0
M  V30 4534 H     -27.4740    48.3470   -42.8360 0 CHG=0 CFG=0
M  V30 4535 H     -25.0980    49.3250   -42.8040 0 CHG=0 CFG=0
M  V30 4536 H     -25.9740    49.4500   -44.1340 0 CHG=0 CFG=0
M  V30 4537 H     -25.5290    51.3840   -42.1930 0 CHG=0 CFG=0
M  V30 4538 H     -25.5000    51.5660   -43.7770 0 CHG=0 CFG=0
M  V30 4539 H     -27.5930    52.2300   -42.3850 0 CHG=0 CFG=0
M  V30 4540 H     -27.7310    51.7450   -43.9080 0 CHG=0 CFG=0
M  V30 4541 N     -27.3440    47.9280   -40.3900 0 CHG=0 CFG=0
M  V30 4542 C     -27.1880    47.6680   -38.9830 0 CHG=0 CFG=2
M  V30 4543 C     -26.3320    46.4510   -38.8050 0 CHG=0 CFG=0
M  V30 4544 O     -26.3960    45.4970   -39.6080 0 CHG=0 CFG=0
M  V30 4545 C     -28.5530    47.4100   -38.3900 0 CHG=0 CFG=0
M  V30 4546 C     -28.4470    46.9680   -36.9750 0 CHG=0 CFG=0
M  V30 4547 C     -29.3920    48.6760   -38.5220 0 CHG=0 CFG=0
M  V30 4548 H     -27.8090    47.3350   -40.8050 0 CHG=0 CFG=0
M  V30 4549 H     -26.7720    48.4330   -38.5330 0 CHG=0 CFG=0
M  V30 4550 H     -28.9940    46.6980   -38.8990 0 CHG=0 CFG=0
M  V30 4551 H     -29.3290    46.8130   -36.6290 0 CHG=0 CFG=0
M  V30 4552 H     -27.9330    46.1580   -36.9380 0 CHG=0 CFG=0
M  V30 4553 H     -28.0110    47.6550   -36.4650 0 CHG=0 CFG=0
M  V30 4554 H     -30.2600    48.5150   -38.1460 0 CHG=0 CFG=0
M  V30 4555 H     -28.9570    49.3890   -38.0490 0 CHG=0 CFG=0
M  V30 4556 H     -29.4740    48.9010   -39.4510 0 CHG=0 CFG=0
M  V30 4557 N     -25.5560    46.4280   -37.7390 0 CHG=0 CFG=0
M  V30 4558 C     -24.6370    45.3100   -37.5700 0 CHG=0 CFG=2
M  V30 4559 C     -24.7320    44.6490   -36.1930 0 CHG=0 CFG=0
M  V30 4560 O     -24.3500    43.5020   -36.0220 0 CHG=0 CFG=0
M  V30 4561 C     -23.1830    45.8050   -37.8790 0 CHG=0 CFG=2
M  V30 4562 O     -22.3060    44.6910   -38.0990 0 CHG=0 CFG=0
M  V30 4563 C     -22.6640    46.6460   -36.7510 0 CHG=0 CFG=0
M  V30 4564 H     -25.5370    47.0210   -37.1160 0 CHG=0 CFG=0
M  V30 4565 H     -24.8600    44.6260   -38.2350 0 CHG=0 CFG=0
M  V30 4566 H     -23.2010    46.3550   -38.6780 0 CHG=0 CFG=0
M  V30 4567 H     -22.5720    44.2460   -38.7340 0 CHG=0 CFG=0
M  V30 4568 H     -21.7730    46.9450   -36.9480 0 CHG=0 CFG=0
M  V30 4569 H     -23.2300    47.4110   -36.6250 0 CHG=0 CFG=0
M  V30 4570 H     -22.6480    46.1320   -35.9390 0 CHG=0 CFG=0
M  V30 4571 N     -25.2190    45.3850   -35.1980 0 CHG=0 CFG=0
M  V30 4572 C     -25.4200    44.8330   -33.8550 0 CHG=0 CFG=2
M  V30 4573 C     -26.7920    45.3270   -33.3430 0 CHG=0 CFG=0
M  V30 4574 O     -27.1330    46.4860   -33.5150 0 CHG=0 CFG=0
M  V30 4575 C     -24.3100    45.2720   -32.8680 0 CHG=0 CFG=0
M  V30 4576 C     -22.8750    44.9990   -33.3850 0 CHG=0 CFG=0
M  V30 4577 O     -22.4940    43.8160   -33.6060 0 CHG=0 CFG=0
M  V30 4578 O     -22.1120    45.9910   -33.5380 0 CHG=0 CFG=0
M  V30 4579 H     -25.4420    46.2120   -35.2720 0 CHG=0 CFG=0
M  V30 4580 H     -25.4330    43.8540   -33.8980 0 CHG=0 CFG=0
M  V30 4581 H     -24.3920    46.2260   -32.7090 0 CHG=0 CFG=0
M  V30 4582 H     -24.4230    44.7890   -32.0350 0 CHG=0 CFG=0
M  V30 4583 N     -27.5730    44.4400   -32.7410 0 CHG=0 CFG=0
M  V30 4584 C     -28.8220    44.8050   -32.0930 0 CHG=0 CFG=2
M  V30 4585 C     -28.8230    44.1660   -30.7060 0 CHG=0 CFG=0
M  V30 4586 O     -28.5920    42.9600   -30.5850 0 CHG=0 CFG=0
M  V30 4587 C     -30.0450    44.2590   -32.8640 0 CHG=0 CFG=0
M  V30 4588 C     -31.3450    44.6010   -32.1290 0 CHG=0 CFG=0
M  V30 4589 C     -30.0810    44.7970   -34.3220 0 CHG=0 CFG=0
M  V30 4590 H     -27.3950    43.6000   -32.6940 0 CHG=0 CFG=0
M  V30 4591 H     -28.8950    45.7790   -32.0070 0 CHG=0 CFG=0
M  V30 4592 H     -29.9770    43.2830   -32.9090 0 CHG=0 CFG=0
M  V30 4593 H     -32.0870    44.2510   -32.6290 0 CHG=0 CFG=0
M  V30 4594 H     -31.3230    44.2050   -31.2550 0 CHG=0 CFG=0
M  V30 4595 H     -31.4210    45.5550   -32.0560 0 CHG=0 CFG=0
M  V30 4596 H     -30.8510    44.4380   -34.7690 0 CHG=0 CFG=0
M  V30 4597 H     -30.1320    45.7560   -34.3000 0 CHG=0 CFG=0
M  V30 4598 H     -29.2810    44.5220   -34.7760 0 CHG=0 CFG=0
M  V30 4599 N     -29.0640    44.9760   -29.6800 0 CHG=0 CFG=0
M  V30 4600 C     -29.1900    44.5150   -28.2980 0 CHG=0 CFG=2
M  V30 4601 C     -30.6500    44.3820   -27.8540 0 CHG=0 CFG=0
M  V30 4602 O     -31.4650    45.2930   -28.1040 0 CHG=0 CFG=0
M  V30 4603 C     -28.4970    45.5110   -27.3890 0 CHG=0 CFG=0
M  V30 4604 C     -27.0160    45.5960   -27.6110 0 CHG=0 CFG=0
M  V30 4605 C     -26.4920    46.4070   -28.6260 0 CHG=0 CFG=0
M  V30 4606 C     -26.1410    44.8690   -26.8110 0 CHG=0 CFG=0
M  V30 4607 C     -25.1280    46.4860   -28.8370 0 CHG=0 CFG=0
M  V30 4608 C     -24.8090    44.9380   -27.0010 0 CHG=0 CFG=0
M  V30 4609 C     -24.2920    45.7490   -28.0470 0 CHG=0 CFG=0
M  V30 4610 H     -29.1630    45.8260   -29.7620 0 CHG=0 CFG=0
M  V30 4611 H     -28.7520    43.6440   -28.2010 0 CHG=0 CFG=0
M  V30 4612 H     -28.8720    46.3910   -27.5450 0 CHG=0 CFG=0
M  V30 4613 H     -28.6440    45.2480   -26.4670 0 CHG=0 CFG=0
M  V30 4614 H     -27.0700    46.8950   -29.1670 0 CHG=0 CFG=0
M  V30 4615 H     -26.4800    44.3290   -26.1340 0 CHG=0 CFG=0
M  V30 4616 H     -24.7860    47.0210   -29.5160 0 CHG=0 CFG=0
M  V30 4617 H     -24.2340    44.4420   -26.4640 0 CHG=0 CFG=0
M  V30 4618 H     -23.3720    45.8030   -28.1750 0 CHG=0 CFG=0
M  V30 4619 N     -30.9800    43.2550   -27.2070 0 CHG=0 CFG=0
M  V30 4620 C     -32.3370    43.0220   -26.6400 0 CHG=0 CFG=2
M  V30 4621 C     -32.3070    42.7730   -25.1350 0 CHG=0 CFG=0
M  V30 4622 O     -31.3370    42.2210   -24.5910 0 CHG=0 CFG=0
M  V30 4623 C     -33.0350    41.8430   -27.3050 0 CHG=0 CFG=0
M  V30 4624 C     -33.1150    41.9350   -28.8180 0 CHG=0 CFG=0
M  V30 4625 C     -34.2700    42.3580   -29.4630 0 CHG=0 CFG=0
M  V30 4626 C     -32.0190    41.5870   -29.6030 0 CHG=0 CFG=0
M  V30 4627 C     -34.3200    42.4190   -30.8540 0 CHG=0 CFG=0
M  V30 4628 C     -32.0710    41.6330   -30.9620 0 CHG=0 CFG=0
M  V30 4629 C     -33.2070    42.0650   -31.5870 0 CHG=0 CFG=0
M  V30 4630 O     -33.1810    42.1070   -32.9630 0 CHG=0 CFG=0
M  V30 4631 H     -30.4380    42.6000   -27.0780 0 CHG=0 CFG=0
M  V30 4632 H     -32.8830    43.8200   -26.7990 0 CHG=0 CFG=0
M  V30 4633 H     -32.5530    41.0310   -27.0840 0 CHG=0 CFG=0
M  V30 4634 H     -33.9420    41.7880   -26.9650 0 CHG=0 CFG=0
M  V30 4635 H     -35.0170    42.5970   -28.9630 0 CHG=0 CFG=0
M  V30 4636 H     -31.2400    41.2930   -29.1890 0 CHG=0 CFG=0
M  V30 4637 H     -35.0930    42.7070   -31.2840 0 CHG=0 CFG=0
M  V30 4638 H     -31.3230    41.4030   -31.4640 0 CHG=0 CFG=0
M  V30 4639 H     -33.0280    41.3600   -33.2640 0 CHG=0 CFG=0
M  V30 4640 N     -33.3800    43.1780   -24.4550 0 CHG=0 CFG=0
M  V30 4641 C     -33.4780    42.9840   -23.0040 0 CHG=0 CFG=2
M  V30 4642 C     -34.0340    41.5950   -22.7250 0 CHG=0 CFG=0
M  V30 4643 O     -34.8590    41.1020   -23.4810 0 CHG=0 CFG=0
M  V30 4644 C     -34.3790    44.0250   -22.3670 0 CHG=0 CFG=0
M  V30 4645 C     -34.5570    43.8460   -20.8830 0 CHG=0 CFG=0
M  V30 4646 C     -33.3410    44.3180   -20.1210 0 CHG=0 CFG=0
M  V30 4647 C     -33.5460    44.1570   -18.6120 0 CHG=0 CFG=0
M  V30 4648 N     -33.4070    42.7210   -18.1320 0 CHG=1 CFG=0
M  V30 4649 H     -34.0620    43.5670   -24.8060 0 CHG=0 CFG=0
M  V30 4650 H     -32.5870    43.0510   -22.6010 0 CHG=0 CFG=0
M  V30 4651 H     -33.9970    44.9030   -22.5170 0 CHG=0 CFG=0
M  V30 4652 H     -35.2560    43.9730   -22.7790 0 CHG=0 CFG=0
M  V30 4653 H     -35.3220    44.3640   -20.5870 0 CHG=0 CFG=0
M  V30 4654 H     -34.6920    42.9060   -20.6880 0 CHG=0 CFG=0
M  V30 4655 H     -32.5710    43.7900   -20.3830 0 CHG=0 CFG=0
M  V30 4656 H     -33.1870    45.2570   -20.3100 0 CHG=0 CFG=0
M  V30 4657 H     -32.8840    44.6920   -18.1460 0 CHG=0 CFG=0
M  V30 4658 H     -34.4380    44.4620   -18.3820 0 CHG=0 CFG=0
M  V30 4659 H     -33.5340    42.6810   -17.2520 0 CHG=0 CFG=0
M  V30 4660 H     -34.0100    42.2060   -18.5350 0 CHG=0 CFG=0
M  V30 4661 H     -32.5930    42.4150   -18.3200 0 CHG=0 CFG=0
M  V30 4662 N     -33.5520    40.9620   -21.6590 0 CHG=0 CFG=0
M  V30 4663 C     -33.9320    39.5820   -21.3350 0 CHG=0 CFG=2
M  V30 4664 C     -33.9120    39.3580   -19.7990 0 CHG=0 CFG=0
M  V30 4665 O     -33.2770    40.1050   -19.0350 0 CHG=0 CFG=0
M  V30 4666 C     -32.9700    38.6120   -22.0600 0 CHG=0 CFG=0
M  V30 4667 C     -33.2700    37.1020   -21.9220 0 CHG=0 CFG=0
M  V30 4668 C     -34.6990    36.7340   -22.2950 0 CHG=0 CFG=0
M  V30 4669 O     -34.9970    36.4390   -23.4890 0 CHG=0 CFG=0
M  V30 4670 O     -35.5340    36.7600   -21.3670 0 CHG=0 CFG=0
M  V30 4671 H     -32.9990    41.3100   -21.1000 0 CHG=0 CFG=0
M  V30 4672 H     -34.8420    39.4120   -21.6580 0 CHG=0 CFG=0
M  V30 4673 H     -32.9860    38.8210   -23.0070 0 CHG=0 CFG=0
M  V30 4674 H     -32.0750    38.7590   -21.7140 0 CHG=0 CFG=0
M  V30 4675 H     -32.6730    36.6080   -22.5050 0 CHG=0 CFG=0
M  V30 4676 H     -33.1250    36.8360   -21.0000 0 CHG=0 CFG=0
M  V30 4677 N     -34.6090    38.3300   -19.3500 0 CHG=0 CFG=0
M  V30 4678 C     -34.5280    37.8950   -17.9480 0 CHG=0 CFG=2
M  V30 4679 C     -34.4860    36.3830   -17.9850 0 CHG=0 CFG=0
M  V30 4680 O     -33.4950    35.7820   -17.5970 0 CHG=0 CFG=0
M  V30 4681 C     -35.7380    38.3510   -17.1250 0 CHG=0 CFG=2
M  V30 4682 O     -36.9180    37.7760   -17.6800 0 CHG=0 CFG=0
M  V30 4683 C     -35.9010    39.8490   -17.1770 0 CHG=0 CFG=0
M  V30 4684 H     -35.1430    37.8590   -19.8320 0 CHG=0 CFG=0
M  V30 4685 H     -33.7070    38.2330   -17.5330 0 CHG=0 CFG=0
M  V30 4686 H     -35.6360    38.0750   -16.2010 0 CHG=0 CFG=0
M  V30 4687 H     -37.0090    38.0190   -18.4580 0 CHG=0 CFG=0
M  V30 4688 H     -36.6620    40.1140   -16.6560 0 CHG=0 CFG=0
M  V30 4689 H     -35.1170    40.2770   -16.8240 0 CHG=0 CFG=0
M  V30 4690 H     -36.0290    40.1330   -18.0850 0 CHG=0 CFG=0
M  V30 4691 N     -35.5410    35.7610   -18.5010 0 CHG=0 CFG=0
M  V30 4692 C     -35.5470    34.3120   -18.6930 0 CHG=0 CFG=2
M  V30 4693 C     -36.5160    33.9110   -19.7930 0 CHG=0 CFG=0
M  V30 4694 O     -37.7060    34.2390   -19.7330 0 CHG=0 CFG=0
M  V30 4695 C     -35.9120    33.6040   -17.3780 0 CHG=0 CFG=0
M  V30 4696 O     -36.0290    32.1980   -17.5460 0 CHG=0 CFG=0
M  V30 4697 H     -36.2660    36.1530   -18.7490 0 CHG=0 CFG=0
M  V30 4698 H     -34.6490    34.0210   -18.9560 0 CHG=0 CFG=0
M  V30 4699 H     -35.2190    33.7830   -16.7230 0 CHG=0 CFG=0
M  V30 4700 H     -36.7600    33.9520   -17.0610 0 CHG=0 CFG=0
M  V30 4701 H     -35.8800    31.9960   -18.3260 0 CHG=0 CFG=0
M  V30 4702 N     -36.0070    33.2150   -20.8050 0 CHG=0 CFG=0
M  V30 4703 C     -36.8400    32.7700   -21.9120 0 CHG=0 CFG=2
M  V30 4704 C     -36.6940    31.3000   -22.0700 0 CHG=0 CFG=0
M  V30 4705 O     -35.6100    30.7500   -21.8880 0 CHG=0 CFG=0
M  V30 4706 C     -36.4520    33.4150   -23.2340 0 CHG=0 CFG=0
M  V30 4707 C     -37.1000    32.7750   -24.4690 0 CHG=0 CFG=0
M  V30 4708 C     -38.3050    33.2330   -24.9520 0 CHG=0 CFG=0
M  V30 4709 C     -36.4840    31.7530   -25.1610 0 CHG=0 CFG=0
M  V30 4710 C     -38.8740    32.6990   -26.0690 0 CHG=0 CFG=0
M  V30 4711 C     -37.0560    31.2100   -26.2920 0 CHG=0 CFG=0
M  V30 4712 C     -38.2560    31.6900   -26.7300 0 CHG=0 CFG=0
M  V30 4713 O     -38.8560    31.1820   -27.8540 0 CHG=0 CFG=0
M  V30 4714 H     -35.1800    32.9880   -20.8720 0 CHG=0 CFG=0
M  V30 4715 H     -37.7790    32.9760   -21.7240 0 CHG=0 CFG=0
M  V30 4716 H     -36.7170    34.3480   -23.2130 0 CHG=0 CFG=0
M  V30 4717 H     -35.4900    33.3510   -23.3400 0 CHG=0 CFG=0
M  V30 4718 H     -38.7370    33.9280   -24.5100 0 CHG=0 CFG=0
M  V30 4719 H     -35.6640    31.4300   -24.8640 0 CHG=0 CFG=0
M  V30 4720 H     -39.6910    33.0230   -26.3740 0 CHG=0 CFG=0
M  V30 4721 H     -36.6320    30.5190   -26.7470 0 CHG=0 CFG=0
M  V30 4722 H     -39.0130    30.3840   -27.7520 0 CHG=0 CFG=0
M  V30 4723 N     -37.8010    30.6840   -22.4480 0 CHG=0 CFG=0
M  V30 4724 C     -37.8890    29.2560   -22.5930 0 CHG=0 CFG=2
M  V30 4725 C     -39.0890    28.9980   -23.5230 0 CHG=0 CFG=0
M  V30 4726 O     -39.9860    29.8500   -23.6500 0 CHG=0 CFG=0
M  V30 4727 C     -38.0530    28.6160   -21.2120 0 CHG=0 CFG=2
M  V30 4728 O     -37.9340    27.1900   -21.3140 0 CHG=0 CFG=0
M  V30 4729 C     -39.3880    29.0260   -20.6020 0 CHG=0 CFG=0
M  V30 4730 H     -38.5350    31.0920   -22.6310 0 CHG=0 CFG=0
M  V30 4731 H     -37.0750    28.9090   -23.0140 0 CHG=0 CFG=0
M  V30 4732 H     -37.3490    28.9460   -20.6310 0 CHG=0 CFG=0
M  V30 4733 H     -38.0220    26.8480   -20.5740 0 CHG=0 CFG=0
M  V30 4734 H     -39.4900    28.6250   -19.7360 0 CHG=0 CFG=0
M  V30 4735 H     -39.4270    29.9810   -20.5090 0 CHG=0 CFG=0
M  V30 4736 H     -40.1090    28.7380   -21.1670 0 CHG=0 CFG=0
M  V30 4737 N     -39.0990    27.8510   -24.1980 0 CHG=0 CFG=0
M  V30 4738 C     -40.0070    27.6590   -25.3220 0 CHG=0 CFG=2
M  V30 4739 C     -40.9420    26.4680   -25.1390 0 CHG=0 CFG=0
M  V30 4740 O     -41.9360    26.3410   -25.8630 0 CHG=0 CFG=0
M  V30 4741 C     -39.2160    27.4940   -26.6380 0 CHG=0 CFG=2
M  V30 4742 O     -40.1160    27.1990   -27.7160 0 CHG=0 CFG=0
M  V30 4743 C     -38.2220    26.3780   -26.5180 0 CHG=0 CFG=0
M  V30 4744 H     -38.5940    27.1750   -24.0270 0 CHG=0 CFG=0
M  V30 4745 H     -40.5650    28.4600   -25.4110 0 CHG=0 CFG=0
M  V30 4746 H     -38.7360    28.3140   -26.8330 0 CHG=0 CFG=0
M  V30 4747 H     -39.6970    27.1110   -28.4150 0 CHG=0 CFG=0
M  V30 4748 H     -37.7350    26.2820   -27.3390 0 CHG=0 CFG=0
M  V30 4749 H     -37.6030    26.5650   -25.8080 0 CHG=0 CFG=0
M  V30 4750 H     -38.6760    25.5540   -26.3260 0 CHG=0 CFG=0
M  V30 4751 H     -40.7332    25.7267   -24.3677 0 CHG=0 CFG=0
M  V30 4752 Zn    -27.5660    17.3840   -41.5680 0 CHG=2 CFG=0
M  V30 END ATOM
M  V30 BEGIN BOND
M  V30 1 1 1 2 CFG=0
M  V30 2 1 2 3 CFG=0
M  V30 3 2 3 4 CFG=0
M  V30 4 1 2 5 CFG=0
M  V30 5 1 5 6 CFG=0
M  V30 6 4 6 7 CFG=0
M  V30 7 4 6 8 CFG=0
M  V30 8 4 7 9 CFG=0
M  V30 9 4 8 10 CFG=0
M  V30 10 4 9 11 CFG=0
M  V30 11 4 10 11 CFG=0
M  V30 12 1 1 12 CFG=0
M  V30 13 1 13 2 CFG=0
M  V30 14 1 14 5 CFG=0
M  V30 15 1 15 5 CFG=0
M  V30 16 1 16 7 CFG=0
M  V30 17 1 17 8 CFG=0
M  V30 18 1 18 9 CFG=0
M  V30 19 1 19 10 CFG=0
M  V30 20 1 20 11 CFG=0
M  V30 21 1 1 21 CFG=0
M  V30 22 1 1 22 CFG=0
M  V30 23 1 23 24 CFG=0
M  V30 24 1 24 25 CFG=0
M  V30 25 2 25 26 CFG=0
M  V30 26 1 24 27 CFG=0
M  V30 27 1 27 28 CFG=0
M  V30 28 1 27 29 CFG=0
M  V30 29 1 23 30 CFG=0
M  V30 30 1 31 24 CFG=0
M  V30 31 1 32 27 CFG=0
M  V30 32 1 33 28 CFG=0
M  V30 33 1 34 29 CFG=0
M  V30 34 1 35 29 CFG=0
M  V30 35 1 36 29 CFG=0
M  V30 36 1 37 38 CFG=0
M  V30 37 1 38 39 CFG=0
M  V30 38 2 39 40 CFG=0
M  V30 39 1 38 41 CFG=0
M  V30 40 1 41 42 CFG=0
M  V30 41 1 41 43 CFG=0
M  V30 42 1 37 44 CFG=0
M  V30 43 1 45 38 CFG=0
M  V30 44 1 46 41 CFG=0
M  V30 45 1 47 42 CFG=0
M  V30 46 1 48 43 CFG=0
M  V30 47 1 49 43 CFG=0
M  V30 48 1 50 43 CFG=0
M  V30 49 1 51 52 CFG=0
M  V30 50 1 52 53 CFG=0
M  V30 51 2 53 54 CFG=0
M  V30 52 1 52 55 CFG=0
M  V30 53 1 55 56 CFG=0
M  V30 54 1 55 57 CFG=0
M  V30 55 1 51 58 CFG=0
M  V30 56 1 59 52 CFG=0
M  V30 57 1 60 55 CFG=0
M  V30 58 1 61 56 CFG=0
M  V30 59 1 62 56 CFG=0
M  V30 60 1 63 56 CFG=0
M  V30 61 1 64 57 CFG=0
M  V30 62 1 65 57 CFG=0
M  V30 63 1 66 57 CFG=0
M  V30 64 1 67 68 CFG=0
M  V30 65 1 68 69 CFG=0
M  V30 66 2 69 70 CFG=0
M  V30 67 1 68 71 CFG=0
M  V30 68 1 71 72 CFG=0
M  V30 69 4 72 73 CFG=0
M  V30 70 4 72 74 CFG=0
M  V30 71 1 67 75 CFG=0
M  V30 72 1 76 68 CFG=0
M  V30 73 1 77 71 CFG=0
M  V30 74 1 78 71 CFG=0
M  V30 75 1 79 80 CFG=0
M  V30 76 1 80 81 CFG=0
M  V30 77 2 81 82 CFG=0
M  V30 78 1 80 83 CFG=0
M  V30 79 1 83 84 CFG=0
M  V30 80 2 84 85 CFG=0
M  V30 81 1 84 86 CFG=0
M  V30 82 1 79 87 CFG=0
M  V30 83 1 88 80 CFG=0
M  V30 84 1 89 83 CFG=0
M  V30 85 1 90 83 CFG=0
M  V30 86 1 91 86 CFG=0
M  V30 87 1 92 86 CFG=0
M  V30 88 1 93 94 CFG=0
M  V30 89 1 94 95 CFG=0
M  V30 90 2 95 96 CFG=0
M  V30 91 1 94 97 CFG=0
M  V30 92 1 97 98 CFG=0
M  V30 93 1 97 99 CFG=0
M  V30 94 1 93 100 CFG=0
M  V30 95 1 101 94 CFG=0
M  V30 96 1 102 97 CFG=0
M  V30 97 1 103 98 CFG=0
M  V30 98 1 104 99 CFG=0
M  V30 99 1 105 99 CFG=0
M  V30 100 1 106 99 CFG=0
M  V30 101 1 107 108 CFG=0
M  V30 102 1 108 109 CFG=0
M  V30 103 2 109 110 CFG=0
M  V30 104 1 108 111 CFG=0
M  V30 105 1 111 112 CFG=0
M  V30 106 2 112 113 CFG=0
M  V30 107 1 112 114 CFG=0
M  V30 108 1 107 115 CFG=0
M  V30 109 1 116 108 CFG=0
M  V30 110 1 117 111 CFG=0
M  V30 111 1 118 111 CFG=0
M  V30 112 1 119 114 CFG=0
M  V30 113 1 120 114 CFG=0
M  V30 114 1 121 122 CFG=0
M  V30 115 1 122 123 CFG=0
M  V30 116 2 123 124 CFG=0
M  V30 117 1 122 125 CFG=0
M  V30 118 1 125 126 CFG=0
M  V30 119 1 126 127 CFG=0
M  V30 120 1 126 128 CFG=0
M  V30 121 1 121 129 CFG=0
M  V30 122 1 130 122 CFG=0
M  V30 123 1 131 125 CFG=0
M  V30 124 1 132 125 CFG=0
M  V30 125 1 133 126 CFG=0
M  V30 126 1 134 127 CFG=0
M  V30 127 1 135 127 CFG=0
M  V30 128 1 136 127 CFG=0
M  V30 129 1 137 128 CFG=0
M  V30 130 1 138 128 CFG=0
M  V30 131 1 139 128 CFG=0
M  V30 132 1 140 141 CFG=0
M  V30 133 1 141 142 CFG=0
M  V30 134 2 142 143 CFG=0
M  V30 135 1 141 144 CFG=0
M  V30 136 1 144 145 CFG=0
M  V30 137 1 145 146 CFG=0
M  V30 138 2 145 147 CFG=0
M  V30 139 1 146 148 CFG=0
M  V30 140 1 147 149 CFG=0
M  V30 141 2 148 149 CFG=0
M  V30 142 1 140 150 CFG=0
M  V30 143 1 151 141 CFG=0
M  V30 144 1 152 144 CFG=0
M  V30 145 1 153 144 CFG=0
M  V30 146 1 154 146 CFG=0
M  V30 147 1 155 147 CFG=0
M  V30 148 1 156 148 CFG=0
M  V30 149 1 157 149 CFG=0
M  V30 150 1 158 159 CFG=0
M  V30 151 1 159 160 CFG=0
M  V30 152 2 160 161 CFG=0
M  V30 153 1 159 162 CFG=0
M  V30 154 1 162 163 CFG=0
M  V30 155 1 162 164 CFG=0
M  V30 156 1 158 165 CFG=0
M  V30 157 1 166 159 CFG=0
M  V30 158 1 167 162 CFG=0
M  V30 159 1 168 163 CFG=0
M  V30 160 1 169 164 CFG=0
M  V30 161 1 170 164 CFG=0
M  V30 162 1 171 164 CFG=0
M  V30 163 1 172 173 CFG=0
M  V30 164 1 173 174 CFG=0
M  V30 165 2 174 175 CFG=0
M  V30 166 1 173 176 CFG=0
M  V30 167 1 176 177 CFG=0
M  V30 168 1 177 178 CFG=0
M  V30 169 2 178 179 CFG=0
M  V30 170 1 178 180 CFG=0
M  V30 171 1 172 181 CFG=0
M  V30 172 1 182 173 CFG=0
M  V30 173 1 183 176 CFG=0
M  V30 174 1 184 176 CFG=0
M  V30 175 1 185 177 CFG=0
M  V30 176 1 186 177 CFG=0
M  V30 177 1 187 180 CFG=0
M  V30 178 1 188 180 CFG=0
M  V30 179 1 189 190 CFG=0
M  V30 180 1 190 191 CFG=0
M  V30 181 2 191 192 CFG=0
M  V30 182 1 190 193 CFG=0
M  V30 183 1 193 194 CFG=0
M  V30 184 1 194 195 CFG=0
M  V30 185 1 194 196 CFG=0
M  V30 186 1 189 197 CFG=0
M  V30 187 1 198 190 CFG=0
M  V30 188 1 199 193 CFG=0
M  V30 189 1 200 193 CFG=0
M  V30 190 1 201 194 CFG=0
M  V30 191 1 202 195 CFG=0
M  V30 192 1 203 195 CFG=0
M  V30 193 1 204 195 CFG=0
M  V30 194 1 205 196 CFG=0
M  V30 195 1 206 196 CFG=0
M  V30 196 1 207 196 CFG=0
M  V30 197 1 208 209 CFG=0
M  V30 198 1 209 210 CFG=0
M  V30 199 2 210 211 CFG=0
M  V30 200 1 209 212 CFG=0
M  V30 201 1 212 213 CFG=0
M  V30 202 1 212 214 CFG=0
M  V30 203 1 208 215 CFG=0
M  V30 204 1 216 209 CFG=0
M  V30 205 1 217 212 CFG=0
M  V30 206 1 218 213 CFG=0
M  V30 207 1 219 213 CFG=0
M  V30 208 1 220 213 CFG=0
M  V30 209 1 221 214 CFG=0
M  V30 210 1 222 214 CFG=0
M  V30 211 1 223 214 CFG=0
M  V30 212 1 224 225 CFG=0
M  V30 213 1 225 226 CFG=0
M  V30 214 2 226 227 CFG=0
M  V30 215 1 225 228 CFG=0
M  V30 216 1 228 229 CFG=0
M  V30 217 4 229 230 CFG=0
M  V30 218 4 229 231 CFG=0
M  V30 219 1 224 232 CFG=0
M  V30 220 1 233 225 CFG=0
M  V30 221 1 234 228 CFG=0
M  V30 222 1 235 228 CFG=0
M  V30 223 1 236 237 CFG=0
M  V30 224 1 237 238 CFG=0
M  V30 225 2 238 239 CFG=0
M  V30 226 1 237 240 CFG=0
M  V30 227 1 240 241 CFG=0
M  V30 228 1 241 242 CFG=0
M  V30 229 1 242 243 CFG=0
M  V30 230 1 236 244 CFG=0
M  V30 231 1 245 237 CFG=0
M  V30 232 1 246 240 CFG=0
M  V30 233 1 247 240 CFG=0
M  V30 234 1 248 241 CFG=0
M  V30 235 1 249 241 CFG=0
M  V30 236 1 250 243 CFG=0
M  V30 237 1 251 243 CFG=0
M  V30 238 1 252 243 CFG=0
M  V30 239 1 253 254 CFG=0
M  V30 240 1 254 255 CFG=0
M  V30 241 2 255 256 CFG=0
M  V30 242 1 254 257 CFG=0
M  V30 243 1 257 258 CFG=0
M  V30 244 1 253 259 CFG=0
M  V30 245 1 260 254 CFG=0
M  V30 246 1 261 257 CFG=0
M  V30 247 1 262 257 CFG=0
M  V30 248 1 263 258 CFG=0
M  V30 249 1 264 265 CFG=0
M  V30 250 1 265 266 CFG=0
M  V30 251 2 266 267 CFG=0
M  V30 252 1 265 268 CFG=0
M  V30 253 1 268 269 CFG=0
M  V30 254 1 269 270 CFG=0
M  V30 255 1 270 271 CFG=0
M  V30 256 1 264 272 CFG=0
M  V30 257 1 273 265 CFG=0
M  V30 258 1 274 268 CFG=0
M  V30 259 1 275 268 CFG=0
M  V30 260 1 276 269 CFG=0
M  V30 261 1 277 269 CFG=0
M  V30 262 1 278 271 CFG=0
M  V30 263 1 279 271 CFG=0
M  V30 264 1 280 271 CFG=0
M  V30 265 1 281 282 CFG=0
M  V30 266 1 282 283 CFG=0
M  V30 267 2 283 284 CFG=0
M  V30 268 1 282 285 CFG=0
M  V30 269 1 285 286 CFG=0
M  V30 270 1 285 287 CFG=0
M  V30 271 1 281 288 CFG=0
M  V30 272 1 289 282 CFG=0
M  V30 273 1 290 285 CFG=0
M  V30 274 1 291 286 CFG=0
M  V30 275 1 292 287 CFG=0
M  V30 276 1 293 287 CFG=0
M  V30 277 1 294 287 CFG=0
M  V30 278 1 295 296 CFG=0
M  V30 279 1 296 297 CFG=0
M  V30 280 2 297 298 CFG=0
M  V30 281 1 296 299 CFG=0
M  V30 282 1 299 300 CFG=0
M  V30 283 4 300 301 CFG=0
M  V30 284 4 300 302 CFG=0
M  V30 285 4 301 303 CFG=0
M  V30 286 4 302 304 CFG=0
M  V30 287 4 303 305 CFG=0
M  V30 288 4 304 305 CFG=0
M  V30 289 1 305 306 CFG=0
M  V30 290 1 295 307 CFG=0
M  V30 291 1 308 296 CFG=0
M  V30 292 1 309 299 CFG=0
M  V30 293 1 310 299 CFG=0
M  V30 294 1 311 301 CFG=0
M  V30 295 1 312 302 CFG=0
M  V30 296 1 313 303 CFG=0
M  V30 297 1 314 304 CFG=0
M  V30 298 1 315 306 CFG=0
M  V30 299 1 316 317 CFG=0
M  V30 300 1 317 318 CFG=0
M  V30 301 2 318 319 CFG=0
M  V30 302 1 316 320 CFG=0
M  V30 303 1 321 317 CFG=0
M  V30 304 1 322 317 CFG=0
M  V30 305 1 323 324 CFG=0
M  V30 306 1 324 325 CFG=0
M  V30 307 2 325 326 CFG=0
M  V30 308 1 324 327 CFG=0
M  V30 309 1 327 328 CFG=0
M  V30 310 1 328 329 CFG=0
M  V30 311 2 329 330 CFG=0
M  V30 312 1 329 331 CFG=0
M  V30 313 1 323 332 CFG=0
M  V30 314 1 333 324 CFG=0
M  V30 315 1 334 327 CFG=0
M  V30 316 1 335 327 CFG=0
M  V30 317 1 336 328 CFG=0
M  V30 318 1 337 328 CFG=0
M  V30 319 1 338 331 CFG=0
M  V30 320 1 339 331 CFG=0
M  V30 321 1 340 341 CFG=0
M  V30 322 1 341 342 CFG=0
M  V30 323 2 342 343 CFG=0
M  V30 324 1 341 344 CFG=0
M  V30 325 1 344 345 CFG=0
M  V30 326 1 345 346 CFG=0
M  V30 327 2 346 347 CFG=0
M  V30 328 1 346 348 CFG=0
M  V30 329 1 340 349 CFG=0
M  V30 330 1 350 341 CFG=0
M  V30 331 1 351 344 CFG=0
M  V30 332 1 352 344 CFG=0
M  V30 333 1 353 345 CFG=0
M  V30 334 1 354 345 CFG=0
M  V30 335 1 355 348 CFG=0
M  V30 336 1 356 348 CFG=0
M  V30 337 1 357 358 CFG=0
M  V30 338 1 358 359 CFG=0
M  V30 339 2 359 360 CFG=0
M  V30 340 1 358 361 CFG=0
M  V30 341 1 361 362 CFG=0
M  V30 342 4 362 363 CFG=0
M  V30 343 4 362 364 CFG=0
M  V30 344 4 363 365 CFG=0
M  V30 345 4 364 366 CFG=0
M  V30 346 4 365 367 CFG=0
M  V30 347 4 366 367 CFG=0
M  V30 348 1 357 368 CFG=0
M  V30 349 1 369 358 CFG=0
M  V30 350 1 370 361 CFG=0
M  V30 351 1 371 361 CFG=0
M  V30 352 1 372 363 CFG=0
M  V30 353 1 373 364 CFG=0
M  V30 354 1 374 365 CFG=0
M  V30 355 1 375 366 CFG=0
M  V30 356 1 376 367 CFG=0
M  V30 357 1 377 378 CFG=0
M  V30 358 1 378 379 CFG=0
M  V30 359 2 379 380 CFG=0
M  V30 360 1 377 381 CFG=0
M  V30 361 1 382 378 CFG=0
M  V30 362 1 383 378 CFG=0
M  V30 363 1 384 385 CFG=0
M  V30 364 1 385 386 CFG=0
M  V30 365 2 386 387 CFG=0
M  V30 366 1 385 388 CFG=0
M  V30 367 1 388 389 CFG=0
M  V30 368 1 389 390 CFG=0
M  V30 369 1 390 384 CFG=0
M  V30 370 1 391 385 CFG=0
M  V30 371 1 392 388 CFG=0
M  V30 372 1 393 388 CFG=0
M  V30 373 1 394 389 CFG=0
M  V30 374 1 395 389 CFG=0
M  V30 375 1 396 390 CFG=0
M  V30 376 1 397 390 CFG=0
M  V30 377 1 398 399 CFG=0
M  V30 378 1 399 400 CFG=0
M  V30 379 2 400 401 CFG=0
M  V30 380 1 399 402 CFG=0
M  V30 381 1 402 403 CFG=0
M  V30 382 1 402 404 CFG=0
M  V30 383 1 398 405 CFG=0
M  V30 384 1 406 399 CFG=0
M  V30 385 1 407 402 CFG=0
M  V30 386 1 408 403 CFG=0
M  V30 387 1 409 404 CFG=0
M  V30 388 1 410 404 CFG=0
M  V30 389 1 411 404 CFG=0
M  V30 390 1 412 413 CFG=0
M  V30 391 1 413 414 CFG=0
M  V30 392 2 414 415 CFG=0
M  V30 393 1 413 416 CFG=0
M  V30 394 1 416 417 CFG=0
M  V30 395 4 417 418 CFG=0
M  V30 396 4 417 419 CFG=0
M  V30 397 4 418 420 CFG=0
M  V30 398 4 419 421 CFG=0
M  V30 399 4 420 422 CFG=0
M  V30 400 4 421 422 CFG=0
M  V30 401 1 422 423 CFG=0
M  V30 402 1 412 424 CFG=0
M  V30 403 1 425 413 CFG=0
M  V30 404 1 426 416 CFG=0
M  V30 405 1 427 416 CFG=0
M  V30 406 1 428 418 CFG=0
M  V30 407 1 429 419 CFG=0
M  V30 408 1 430 420 CFG=0
M  V30 409 1 431 421 CFG=0
M  V30 410 1 432 423 CFG=0
M  V30 411 1 433 434 CFG=0
M  V30 412 1 434 435 CFG=0
M  V30 413 2 435 436 CFG=0
M  V30 414 1 434 437 CFG=0
M  V30 415 1 437 438 CFG=0
M  V30 416 1 438 439 CFG=0
M  V30 417 1 438 440 CFG=0
M  V30 418 1 433 441 CFG=0
M  V30 419 1 442 434 CFG=0
M  V30 420 1 443 437 CFG=0
M  V30 421 1 444 437 CFG=0
M  V30 422 1 445 438 CFG=0
M  V30 423 1 446 439 CFG=0
M  V30 424 1 447 439 CFG=0
M  V30 425 1 448 439 CFG=0
M  V30 426 1 449 440 CFG=0
M  V30 427 1 450 440 CFG=0
M  V30 428 1 451 440 CFG=0
M  V30 429 1 452 453 CFG=0
M  V30 430 1 453 454 CFG=0
M  V30 431 2 454 455 CFG=0
M  V30 432 1 453 456 CFG=0
M  V30 433 1 456 457 CFG=0
M  V30 434 4 457 458 CFG=0
M  V30 435 4 457 459 CFG=0
M  V30 436 1 452 460 CFG=0
M  V30 437 1 461 453 CFG=0
M  V30 438 1 462 456 CFG=0
M  V30 439 1 463 456 CFG=0
M  V30 440 1 464 465 CFG=0
M  V30 441 1 465 466 CFG=0
M  V30 442 2 466 467 CFG=0
M  V30 443 1 464 468 CFG=0
M  V30 444 1 469 465 CFG=0
M  V30 445 1 470 465 CFG=0
M  V30 446 1 471 472 CFG=0
M  V30 447 1 472 473 CFG=0
M  V30 448 2 473 474 CFG=0
M  V30 449 1 472 475 CFG=0
M  V30 450 1 471 476 CFG=0
M  V30 451 1 477 472 CFG=0
M  V30 452 1 478 475 CFG=0
M  V30 453 1 479 475 CFG=0
M  V30 454 1 480 475 CFG=0
M  V30 455 1 481 482 CFG=0
M  V30 456 1 482 483 CFG=0
M  V30 457 2 483 484 CFG=0
M  V30 458 1 482 485 CFG=0
M  V30 459 1 485 486 CFG=0
M  V30 460 4 486 487 CFG=0
M  V30 461 4 486 488 CFG=0
M  V30 462 1 481 489 CFG=0
M  V30 463 1 490 482 CFG=0
M  V30 464 1 491 485 CFG=0
M  V30 465 1 492 485 CFG=0
M  V30 466 1 493 494 CFG=0
M  V30 467 1 494 495 CFG=0
M  V30 468 2 495 496 CFG=0
M  V30 469 1 494 497 CFG=0
M  V30 470 1 497 498 CFG=0
M  V30 471 1 497 499 CFG=0
M  V30 472 1 493 500 CFG=0
M  V30 473 1 501 494 CFG=0
M  V30 474 1 502 497 CFG=0
M  V30 475 1 503 498 CFG=0
M  V30 476 1 504 498 CFG=0
M  V30 477 1 505 498 CFG=0
M  V30 478 1 506 499 CFG=0
M  V30 479 1 507 499 CFG=0
M  V30 480 1 508 499 CFG=0
M  V30 481 1 509 510 CFG=0
M  V30 482 1 510 511 CFG=0
M  V30 483 2 511 512 CFG=0
M  V30 484 1 510 513 CFG=0
M  V30 485 1 513 514 CFG=0
M  V30 486 1 513 515 CFG=0
M  V30 487 1 509 516 CFG=0
M  V30 488 1 517 510 CFG=0
M  V30 489 1 518 513 CFG=0
M  V30 490 1 519 514 CFG=0
M  V30 491 1 520 515 CFG=0
M  V30 492 1 521 515 CFG=0
M  V30 493 1 522 515 CFG=0
M  V30 494 1 523 524 CFG=0
M  V30 495 1 524 525 CFG=0
M  V30 496 2 525 526 CFG=0
M  V30 497 1 524 527 CFG=0
M  V30 498 1 527 528 CFG=0
M  V30 499 1 528 529 CFG=0
M  V30 500 1 529 530 CFG=0
M  V30 501 1 530 531 CFG=0
M  V30 502 1 523 532 CFG=0
M  V30 503 1 533 524 CFG=0
M  V30 504 1 534 527 CFG=0
M  V30 505 1 535 527 CFG=0
M  V30 506 1 536 528 CFG=0
M  V30 507 1 537 528 CFG=0
M  V30 508 1 538 529 CFG=0
M  V30 509 1 539 529 CFG=0
M  V30 510 1 540 530 CFG=0
M  V30 511 1 541 530 CFG=0
M  V30 512 1 542 531 CFG=0
M  V30 513 1 543 531 CFG=0
M  V30 514 1 544 531 CFG=0
M  V30 515 1 545 546 CFG=0
M  V30 516 1 546 547 CFG=0
M  V30 517 2 547 548 CFG=0
M  V30 518 1 546 549 CFG=0
M  V30 519 1 549 550 CFG=0
M  V30 520 1 549 551 CFG=0
M  V30 521 1 550 552 CFG=0
M  V30 522 1 545 553 CFG=0
M  V30 523 1 554 546 CFG=0
M  V30 524 1 555 549 CFG=0
M  V30 525 1 556 550 CFG=0
M  V30 526 1 557 550 CFG=0
M  V30 527 1 558 551 CFG=0
M  V30 528 1 559 551 CFG=0
M  V30 529 1 560 551 CFG=0
M  V30 530 1 561 552 CFG=0
M  V30 531 1 562 552 CFG=0
M  V30 532 1 563 552 CFG=0
M  V30 533 1 564 565 CFG=0
M  V30 534 1 565 566 CFG=0
M  V30 535 2 566 567 CFG=0
M  V30 536 1 565 568 CFG=0
M  V30 537 1 568 569 CFG=0
M  V30 538 1 569 570 CFG=0
M  V30 539 1 570 571 CFG=0
M  V30 540 1 571 572 CFG=0
M  V30 541 1 564 573 CFG=0
M  V30 542 1 574 565 CFG=0
M  V30 543 1 575 568 CFG=0
M  V30 544 1 576 568 CFG=0
M  V30 545 1 577 569 CFG=0
M  V30 546 1 578 569 CFG=0
M  V30 547 1 579 570 CFG=0
M  V30 548 1 580 570 CFG=0
M  V30 549 1 581 571 CFG=0
M  V30 550 1 582 571 CFG=0
M  V30 551 1 583 572 CFG=0
M  V30 552 1 584 572 CFG=0
M  V30 553 1 585 572 CFG=0
M  V30 554 1 586 587 CFG=0
M  V30 555 1 587 588 CFG=0
M  V30 556 2 588 589 CFG=0
M  V30 557 1 587 590 CFG=0
M  V30 558 1 590 591 CFG=0
M  V30 559 1 591 592 CFG=0
M  V30 560 1 592 586 CFG=0
M  V30 561 1 593 587 CFG=0
M  V30 562 1 594 590 CFG=0
M  V30 563 1 595 590 CFG=0
M  V30 564 1 596 591 CFG=0
M  V30 565 1 597 591 CFG=0
M  V30 566 1 598 592 CFG=0
M  V30 567 1 599 592 CFG=0
M  V30 568 1 600 601 CFG=0
M  V30 569 1 601 602 CFG=0
M  V30 570 2 602 603 CFG=0
M  V30 571 1 601 604 CFG=0
M  V30 572 1 604 605 CFG=0
M  V30 573 1 605 606 CFG=0
M  V30 574 2 605 607 CFG=0
M  V30 575 1 606 608 CFG=0
M  V30 576 1 607 609 CFG=0
M  V30 577 2 608 609 CFG=0
M  V30 578 1 600 610 CFG=0
M  V30 579 1 611 601 CFG=0
M  V30 580 1 612 604 CFG=0
M  V30 581 1 613 604 CFG=0
M  V30 582 1 614 606 CFG=0
M  V30 583 1 615 607 CFG=0
M  V30 584 1 616 608 CFG=0
M  V30 585 1 617 609 CFG=0
M  V30 586 1 618 619 CFG=0
M  V30 587 1 619 620 CFG=0
M  V30 588 2 620 621 CFG=0
M  V30 589 1 619 622 CFG=0
M  V30 590 1 622 623 CFG=0
M  V30 591 1 622 624 CFG=0
M  V30 592 1 618 625 CFG=0
M  V30 593 1 626 619 CFG=0
M  V30 594 1 627 622 CFG=0
M  V30 595 1 628 623 CFG=0
M  V30 596 1 629 623 CFG=0
M  V30 597 1 630 623 CFG=0
M  V30 598 1 631 624 CFG=0
M  V30 599 1 632 624 CFG=0
M  V30 600 1 633 624 CFG=0
M  V30 601 1 634 635 CFG=0
M  V30 602 1 635 636 CFG=0
M  V30 603 2 636 637 CFG=0
M  V30 604 1 635 638 CFG=0
M  V30 605 1 638 639 CFG=0
M  V30 606 2 639 640 CFG=0
M  V30 607 1 639 641 CFG=0
M  V30 608 1 634 642 CFG=0
M  V30 609 1 643 635 CFG=0
M  V30 610 1 644 638 CFG=0
M  V30 611 1 645 638 CFG=0
M  V30 612 1 646 641 CFG=0
M  V30 613 1 647 641 CFG=0
M  V30 614 1 648 649 CFG=0
M  V30 615 1 649 650 CFG=0
M  V30 616 2 650 651 CFG=0
M  V30 617 1 649 652 CFG=0
M  V30 618 1 652 653 CFG=0
M  V30 619 1 653 654 CFG=0
M  V30 620 2 653 655 CFG=0
M  V30 621 1 654 656 CFG=0
M  V30 622 1 655 657 CFG=0
M  V30 623 2 656 657 CFG=0
M  V30 624 1 648 658 CFG=0
M  V30 625 1 659 649 CFG=0
M  V30 626 1 660 652 CFG=0
M  V30 627 1 661 652 CFG=0
M  V30 628 1 662 654 CFG=0
M  V30 629 1 663 655 CFG=0
M  V30 630 1 664 656 CFG=0
M  V30 631 1 665 657 CFG=0
M  V30 632 1 666 667 CFG=0
M  V30 633 1 667 668 CFG=0
M  V30 634 2 668 669 CFG=0
M  V30 635 1 667 670 CFG=0
M  V30 636 1 670 671 CFG=0
M  V30 637 1 671 672 CFG=0
M  V30 638 4 672 673 CFG=0
M  V30 639 4 672 674 CFG=0
M  V30 640 1 666 675 CFG=0
M  V30 641 1 676 667 CFG=0
M  V30 642 1 677 670 CFG=0
M  V30 643 1 678 670 CFG=0
M  V30 644 1 679 671 CFG=0
M  V30 645 1 680 671 CFG=0
M  V30 646 1 681 682 CFG=0
M  V30 647 1 682 683 CFG=0
M  V30 648 2 683 684 CFG=0
M  V30 649 1 681 685 CFG=0
M  V30 650 1 686 682 CFG=0
M  V30 651 1 687 682 CFG=0
M  V30 652 1 688 689 CFG=0
M  V30 653 1 689 690 CFG=0
M  V30 654 2 690 691 CFG=0
M  V30 655 1 689 692 CFG=0
M  V30 656 1 692 693 CFG=0
M  V30 657 1 693 694 CFG=0
M  V30 658 1 694 695 CFG=0
M  V30 659 1 695 696 CFG=0
M  V30 660 1 688 697 CFG=0
M  V30 661 1 698 689 CFG=0
M  V30 662 1 699 692 CFG=0
M  V30 663 1 700 692 CFG=0
M  V30 664 1 701 693 CFG=0
M  V30 665 1 702 693 CFG=0
M  V30 666 1 703 694 CFG=0
M  V30 667 1 704 694 CFG=0
M  V30 668 1 705 695 CFG=0
M  V30 669 1 706 695 CFG=0
M  V30 670 1 707 696 CFG=0
M  V30 671 1 708 696 CFG=0
M  V30 672 1 709 696 CFG=0
M  V30 673 1 710 711 CFG=0
M  V30 674 1 711 712 CFG=0
M  V30 675 2 712 713 CFG=0
M  V30 676 1 711 714 CFG=0
M  V30 677 1 714 715 CFG=0
M  V30 678 1 714 716 CFG=0
M  V30 679 1 710 717 CFG=0
M  V30 680 1 718 711 CFG=0
M  V30 681 1 719 714 CFG=0
M  V30 682 1 720 715 CFG=0
M  V30 683 1 721 716 CFG=0
M  V30 684 1 722 716 CFG=0
M  V30 685 1 723 716 CFG=0
M  V30 686 1 724 725 CFG=0
M  V30 687 1 725 726 CFG=0
M  V30 688 2 726 727 CFG=0
M  V30 689 1 725 728 CFG=0
M  V30 690 1 728 729 CFG=0
M  V30 691 4 729 730 CFG=0
M  V30 692 4 729 731 CFG=0
M  V30 693 4 730 732 CFG=0
M  V30 694 4 731 733 CFG=0
M  V30 695 4 732 734 CFG=0
M  V30 696 4 733 734 CFG=0
M  V30 697 1 724 735 CFG=0
M  V30 698 1 736 725 CFG=0
M  V30 699 1 737 728 CFG=0
M  V30 700 1 738 728 CFG=0
M  V30 701 1 739 730 CFG=0
M  V30 702 1 740 731 CFG=0
M  V30 703 1 741 732 CFG=0
M  V30 704 1 742 733 CFG=0
M  V30 705 1 743 734 CFG=0
M  V30 706 1 744 745 CFG=0
M  V30 707 1 745 746 CFG=0
M  V30 708 2 746 747 CFG=0
M  V30 709 1 745 748 CFG=0
M  V30 710 1 748 749 CFG=0
M  V30 711 4 749 750 CFG=0
M  V30 712 4 749 751 CFG=0
M  V30 713 4 750 752 CFG=0
M  V30 714 4 751 753 CFG=0
M  V30 715 4 752 754 CFG=0
M  V30 716 4 753 754 CFG=0
M  V30 717 1 744 755 CFG=0
M  V30 718 1 756 745 CFG=0
M  V30 719 1 757 748 CFG=0
M  V30 720 1 758 748 CFG=0
M  V30 721 1 759 750 CFG=0
M  V30 722 1 760 751 CFG=0
M  V30 723 1 761 752 CFG=0
M  V30 724 1 762 753 CFG=0
M  V30 725 1 763 754 CFG=0
M  V30 726 1 764 765 CFG=0
M  V30 727 1 765 766 CFG=0
M  V30 728 2 766 767 CFG=0
M  V30 729 1 765 768 CFG=0
M  V30 730 1 768 769 CFG=0
M  V30 731 1 768 770 CFG=0
M  V30 732 1 764 771 CFG=0
M  V30 733 1 772 765 CFG=0
M  V30 734 1 773 768 CFG=0
M  V30 735 1 774 769 CFG=0
M  V30 736 1 775 769 CFG=0
M  V30 737 1 776 769 CFG=0
M  V30 738 1 777 770 CFG=0
M  V30 739 1 778 770 CFG=0
M  V30 740 1 779 770 CFG=0
M  V30 741 1 780 781 CFG=0
M  V30 742 1 781 782 CFG=0
M  V30 743 2 782 783 CFG=0
M  V30 744 1 781 784 CFG=0
M  V30 745 1 784 785 CFG=0
M  V30 746 1 785 786 CFG=0
M  V30 747 1 785 787 CFG=0
M  V30 748 1 780 788 CFG=0
M  V30 749 1 789 781 CFG=0
M  V30 750 1 790 784 CFG=0
M  V30 751 1 791 784 CFG=0
M  V30 752 1 792 785 CFG=0
M  V30 753 1 793 786 CFG=0
M  V30 754 1 794 786 CFG=0
M  V30 755 1 795 786 CFG=0
M  V30 756 1 796 787 CFG=0
M  V30 757 1 797 787 CFG=0
M  V30 758 1 798 787 CFG=0
M  V30 759 1 799 800 CFG=0
M  V30 760 1 800 801 CFG=0
M  V30 761 2 801 802 CFG=0
M  V30 762 1 800 803 CFG=0
M  V30 763 1 803 804 CFG=0
M  V30 764 1 804 805 CFG=0
M  V30 765 1 805 799 CFG=0
M  V30 766 1 806 800 CFG=0
M  V30 767 1 807 803 CFG=0
M  V30 768 1 808 803 CFG=0
M  V30 769 1 809 804 CFG=0
M  V30 770 1 810 804 CFG=0
M  V30 771 1 811 805 CFG=0
M  V30 772 1 812 805 CFG=0
M  V30 773 1 813 814 CFG=0
M  V30 774 1 814 815 CFG=0
M  V30 775 2 815 816 CFG=0
M  V30 776 1 814 817 CFG=0
M  V30 777 1 817 818 CFG=0
M  V30 778 1 813 819 CFG=0
M  V30 779 1 820 814 CFG=0
M  V30 780 1 821 817 CFG=0
M  V30 781 1 822 817 CFG=0
M  V30 782 1 823 818 CFG=0
M  V30 783 1 824 825 CFG=0
M  V30 784 1 825 826 CFG=0
M  V30 785 2 826 827 CFG=0
M  V30 786 1 825 828 CFG=0
M  V30 787 1 828 829 CFG=0
M  V30 788 4 829 830 CFG=0
M  V30 789 4 829 831 CFG=0
M  V30 790 1 824 832 CFG=0
M  V30 791 1 833 825 CFG=0
M  V30 792 1 834 828 CFG=0
M  V30 793 1 835 828 CFG=0
M  V30 794 1 836 837 CFG=0
M  V30 795 1 837 838 CFG=0
M  V30 796 2 838 839 CFG=0
M  V30 797 1 837 840 CFG=0
M  V30 798 1 840 841 CFG=0
M  V30 799 4 841 842 CFG=0
M  V30 800 4 841 843 CFG=0
M  V30 801 1 836 844 CFG=0
M  V30 802 1 845 837 CFG=0
M  V30 803 1 846 840 CFG=0
M  V30 804 1 847 840 CFG=0
M  V30 805 1 848 849 CFG=0
M  V30 806 1 849 850 CFG=0
M  V30 807 2 850 851 CFG=0
M  V30 808 1 849 852 CFG=0
M  V30 809 1 852 853 CFG=0
M  V30 810 1 852 854 CFG=0
M  V30 811 1 848 855 CFG=0
M  V30 812 1 856 849 CFG=0
M  V30 813 1 857 852 CFG=0
M  V30 814 1 858 853 CFG=0
M  V30 815 1 859 854 CFG=0
M  V30 816 1 860 854 CFG=0
M  V30 817 1 861 854 CFG=0
M  V30 818 1 862 863 CFG=0
M  V30 819 1 863 864 CFG=0
M  V30 820 2 864 865 CFG=0
M  V30 821 1 863 866 CFG=0
M  V30 822 1 866 867 CFG=0
M  V30 823 1 867 868 CFG=0
M  V30 824 1 867 869 CFG=0
M  V30 825 1 862 870 CFG=0
M  V30 826 1 871 863 CFG=0
M  V30 827 1 872 866 CFG=0
M  V30 828 1 873 866 CFG=0
M  V30 829 1 874 867 CFG=0
M  V30 830 1 875 868 CFG=0
M  V30 831 1 876 868 CFG=0
M  V30 832 1 877 868 CFG=0
M  V30 833 1 878 869 CFG=0
M  V30 834 1 879 869 CFG=0
M  V30 835 1 880 869 CFG=0
M  V30 836 1 881 882 CFG=0
M  V30 837 1 882 883 CFG=0
M  V30 838 2 883 884 CFG=0
M  V30 839 1 882 885 CFG=0
M  V30 840 1 885 886 CFG=0
M  V30 841 1 886 887 CFG=0
M  V30 842 1 887 888 CFG=0
M  V30 843 1 888 889 CFG=0
M  V30 844 4 889 890 CFG=0
M  V30 845 4 889 891 CFG=0
M  V30 846 1 881 892 CFG=0
M  V30 847 1 893 882 CFG=0
M  V30 848 1 894 885 CFG=0
M  V30 849 1 895 885 CFG=0
M  V30 850 1 896 886 CFG=0
M  V30 851 1 897 886 CFG=0
M  V30 852 1 898 887 CFG=0
M  V30 853 1 899 887 CFG=0
M  V30 854 1 900 888 CFG=0
M  V30 855 1 901 890 CFG=0
M  V30 856 1 902 890 CFG=0
M  V30 857 1 903 891 CFG=0
M  V30 858 1 904 891 CFG=0
M  V30 859 1 905 906 CFG=0
M  V30 860 1 906 907 CFG=0
M  V30 861 2 907 908 CFG=0
M  V30 862 1 906 909 CFG=0
M  V30 863 1 909 910 CFG=0
M  V30 864 1 905 911 CFG=0
M  V30 865 1 912 906 CFG=0
M  V30 866 1 913 909 CFG=0
M  V30 867 1 914 909 CFG=0
M  V30 868 1 915 910 CFG=0
M  V30 869 1 916 917 CFG=0
M  V30 870 1 917 918 CFG=0
M  V30 871 2 918 919 CFG=0
M  V30 872 1 917 920 CFG=0
M  V30 873 1 920 921 CFG=0
M  V30 874 1 921 922 CFG=0
M  V30 875 4 922 923 CFG=0
M  V30 876 4 922 924 CFG=0
M  V30 877 1 916 925 CFG=0
M  V30 878 1 926 917 CFG=0
M  V30 879 1 927 920 CFG=0
M  V30 880 1 928 920 CFG=0
M  V30 881 1 929 921 CFG=0
M  V30 882 1 930 921 CFG=0
M  V30 883 1 931 932 CFG=0
M  V30 884 1 932 933 CFG=0
M  V30 885 2 933 934 CFG=0
M  V30 886 1 932 935 CFG=0
M  V30 887 1 931 936 CFG=0
M  V30 888 1 937 932 CFG=0
M  V30 889 1 938 935 CFG=0
M  V30 890 1 939 935 CFG=0
M  V30 891 1 940 935 CFG=0
M  V30 892 1 941 942 CFG=0
M  V30 893 1 942 943 CFG=0
M  V30 894 2 943 944 CFG=0
M  V30 895 1 942 945 CFG=0
M  V30 896 1 945 946 CFG=0
M  V30 897 4 946 947 CFG=0
M  V30 898 4 946 948 CFG=0
M  V30 899 4 947 949 CFG=0
M  V30 900 4 948 950 CFG=0
M  V30 901 4 949 951 CFG=0
M  V30 902 4 950 951 CFG=0
M  V30 903 1 941 952 CFG=0
M  V30 904 1 953 942 CFG=0
M  V30 905 1 954 945 CFG=0
M  V30 906 1 955 945 CFG=0
M  V30 907 1 956 947 CFG=0
M  V30 908 1 957 948 CFG=0
M  V30 909 1 958 949 CFG=0
M  V30 910 1 959 950 CFG=0
M  V30 911 1 960 951 CFG=0
M  V30 912 1 961 962 CFG=0
M  V30 913 1 962 963 CFG=0
M  V30 914 2 963 964 CFG=0
M  V30 915 1 962 965 CFG=0
M  V30 916 1 965 966 CFG=0
M  V30 917 1 966 967 CFG=0
M  V30 918 4 967 968 CFG=0
M  V30 919 4 967 969 CFG=0
M  V30 920 1 961 970 CFG=0
M  V30 921 1 971 962 CFG=0
M  V30 922 1 972 965 CFG=0
M  V30 923 1 973 965 CFG=0
M  V30 924 1 974 966 CFG=0
M  V30 925 1 975 966 CFG=0
M  V30 926 1 976 977 CFG=0
M  V30 927 1 977 978 CFG=0
M  V30 928 2 978 979 CFG=0
M  V30 929 1 977 980 CFG=0
M  V30 930 1 980 981 CFG=0
M  V30 931 4 981 982 CFG=0
M  V30 932 4 981 983 CFG=0
M  V30 933 4 982 984 CFG=0
M  V30 934 4 983 985 CFG=0
M  V30 935 4 984 986 CFG=0
M  V30 936 4 985 986 CFG=0
M  V30 937 1 986 987 CFG=0
M  V30 938 1 976 988 CFG=0
M  V30 939 1 989 977 CFG=0
M  V30 940 1 990 980 CFG=0
M  V30 941 1 991 980 CFG=0
M  V30 942 1 992 982 CFG=0
M  V30 943 1 993 983 CFG=0
M  V30 944 1 994 984 CFG=0
M  V30 945 1 995 985 CFG=0
M  V30 946 1 996 987 CFG=0
M  V30 947 1 997 998 CFG=0
M  V30 948 1 998 999 CFG=0
M  V30 949 2 999 1000 CFG=0
M  V30 950 1 998 1001 CFG=0
M  V30 951 1 1001 1002 CFG=0
M  V30 952 4 1002 1003 CFG=0
M  V30 953 4 1002 1004 CFG=0
M  V30 954 4 1003 1005 CFG=0
M  V30 955 4 1004 1006 CFG=0
M  V30 956 4 1005 1007 CFG=0
M  V30 957 4 1006 1007 CFG=0
M  V30 958 1 1007 1008 CFG=0
M  V30 959 1 997 1009 CFG=0
M  V30 960 1 1010 998 CFG=0
M  V30 961 1 1011 1001 CFG=0
M  V30 962 1 1012 1001 CFG=0
M  V30 963 1 1013 1003 CFG=0
M  V30 964 1 1014 1004 CFG=0
M  V30 965 1 1015 1005 CFG=0
M  V30 966 1 1016 1006 CFG=0
M  V30 967 1 1017 1008 CFG=0
M  V30 968 1 1018 1019 CFG=0
M  V30 969 1 1019 1020 CFG=0
M  V30 970 2 1020 1021 CFG=0
M  V30 971 1 1019 1022 CFG=0
M  V30 972 1 1022 1023 CFG=0
M  V30 973 1 1023 1024 CFG=0
M  V30 974 2 1023 1025 CFG=0
M  V30 975 1 1024 1026 CFG=0
M  V30 976 1 1025 1027 CFG=0
M  V30 977 2 1026 1027 CFG=0
M  V30 978 1 1018 1028 CFG=0
M  V30 979 1 1029 1019 CFG=0
M  V30 980 1 1030 1022 CFG=0
M  V30 981 1 1031 1022 CFG=0
M  V30 982 1 1032 1024 CFG=0
M  V30 983 1 1033 1025 CFG=0
M  V30 984 1 1034 1026 CFG=0
M  V30 985 1 1035 1027 CFG=0
M  V30 986 1 1036 1037 CFG=0
M  V30 987 1 1037 1038 CFG=0
M  V30 988 2 1038 1039 CFG=0
M  V30 989 1 1037 1040 CFG=0
M  V30 990 1 1040 1041 CFG=0
M  V30 991 1 1040 1042 CFG=0
M  V30 992 1 1036 1043 CFG=0
M  V30 993 1 1044 1037 CFG=0
M  V30 994 1 1045 1040 CFG=0
M  V30 995 1 1046 1041 CFG=0
M  V30 996 1 1047 1042 CFG=0
M  V30 997 1 1048 1042 CFG=0
M  V30 998 1 1049 1042 CFG=0
M  V30 999 1 1050 1051 CFG=0
M  V30 1000 1 1051 1052 CFG=0
M  V30 1001 2 1052 1053 CFG=0
M  V30 1002 1 1051 1054 CFG=0
M  V30 1003 1 1054 1055 CFG=0
M  V30 1004 1 1055 1056 CFG=0
M  V30 1005 1 1055 1057 CFG=0
M  V30 1006 1 1050 1058 CFG=0
M  V30 1007 1 1059 1051 CFG=0
M  V30 1008 1 1060 1054 CFG=0
M  V30 1009 1 1061 1054 CFG=0
M  V30 1010 1 1062 1055 CFG=0
M  V30 1011 1 1063 1056 CFG=0
M  V30 1012 1 1064 1056 CFG=0
M  V30 1013 1 1065 1056 CFG=0
M  V30 1014 1 1066 1057 CFG=0
M  V30 1015 1 1067 1057 CFG=0
M  V30 1016 1 1068 1057 CFG=0
M  V30 1017 1 1069 1070 CFG=0
M  V30 1018 1 1070 1071 CFG=0
M  V30 1019 2 1071 1072 CFG=0
M  V30 1020 1 1070 1073 CFG=0
M  V30 1021 1 1073 1074 CFG=0
M  V30 1022 4 1074 1075 CFG=0
M  V30 1023 4 1074 1076 CFG=0
M  V30 1024 1 1069 1077 CFG=0
M  V30 1025 1 1078 1070 CFG=0
M  V30 1026 1 1079 1073 CFG=0
M  V30 1027 1 1080 1073 CFG=0
M  V30 1028 1 1081 1082 CFG=0
M  V30 1029 1 1082 1083 CFG=0
M  V30 1030 2 1083 1084 CFG=0
M  V30 1031 1 1082 1085 CFG=0
M  V30 1032 1 1085 1086 CFG=0
M  V30 1033 1 1086 1087 CFG=0
M  V30 1034 4 1087 1088 CFG=0
M  V30 1035 4 1087 1089 CFG=0
M  V30 1036 1 1081 1090 CFG=0
M  V30 1037 1 1091 1082 CFG=0
M  V30 1038 1 1092 1085 CFG=0
M  V30 1039 1 1093 1085 CFG=0
M  V30 1040 1 1094 1086 CFG=0
M  V30 1041 1 1095 1086 CFG=0
M  V30 1042 1 1096 1097 CFG=0
M  V30 1043 1 1097 1098 CFG=0
M  V30 1044 2 1098 1099 CFG=0
M  V30 1045 1 1097 1100 CFG=0
M  V30 1046 1 1100 1101 CFG=0
M  V30 1047 1 1096 1102 CFG=0
M  V30 1048 1 1103 1097 CFG=0
M  V30 1049 1 1104 1100 CFG=0
M  V30 1050 1 1105 1100 CFG=0
M  V30 1051 1 1106 1101 CFG=0
M  V30 1052 1 1107 1108 CFG=0
M  V30 1053 1 1108 1109 CFG=0
M  V30 1054 2 1109 1110 CFG=0
M  V30 1055 1 1108 1111 CFG=0
M  V30 1056 1 1111 1112 CFG=0
M  V30 1057 4 1112 1113 CFG=0
M  V30 1058 4 1112 1114 CFG=0
M  V30 1059 4 1113 1115 CFG=0
M  V30 1060 4 1114 1116 CFG=0
M  V30 1061 4 1115 1117 CFG=0
M  V30 1062 4 1116 1117 CFG=0
M  V30 1063 1 1107 1118 CFG=0
M  V30 1064 1 1119 1108 CFG=0
M  V30 1065 1 1120 1111 CFG=0
M  V30 1066 1 1121 1111 CFG=0
M  V30 1067 1 1122 1113 CFG=0
M  V30 1068 1 1123 1114 CFG=0
M  V30 1069 1 1124 1115 CFG=0
M  V30 1070 1 1125 1116 CFG=0
M  V30 1071 1 1126 1117 CFG=0
M  V30 1072 1 1127 1128 CFG=0
M  V30 1073 1 1128 1129 CFG=0
M  V30 1074 2 1129 1130 CFG=0
M  V30 1075 1 1128 1131 CFG=0
M  V30 1076 1 1131 1132 CFG=0
M  V30 1077 1 1132 1133 CFG=0
M  V30 1078 1 1132 1134 CFG=0
M  V30 1079 1 1127 1135 CFG=0
M  V30 1080 1 1136 1128 CFG=0
M  V30 1081 1 1137 1131 CFG=0
M  V30 1082 1 1138 1131 CFG=0
M  V30 1083 1 1139 1132 CFG=0
M  V30 1084 1 1140 1133 CFG=0
M  V30 1085 1 1141 1133 CFG=0
M  V30 1086 1 1142 1133 CFG=0
M  V30 1087 1 1143 1134 CFG=0
M  V30 1088 1 1144 1134 CFG=0
M  V30 1089 1 1145 1134 CFG=0
M  V30 1090 1 1146 1147 CFG=0
M  V30 1091 1 1147 1148 CFG=0
M  V30 1092 2 1148 1149 CFG=0
M  V30 1093 1 1146 1150 CFG=0
M  V30 1094 1 1151 1147 CFG=0
M  V30 1095 1 1152 1147 CFG=0
M  V30 1096 1 1153 1154 CFG=0
M  V30 1097 1 1154 1155 CFG=0
M  V30 1098 2 1155 1156 CFG=0
M  V30 1099 1 1154 1157 CFG=0
M  V30 1100 1 1157 1158 CFG=0
M  V30 1101 1 1158 1159 CFG=0
M  V30 1102 1 1159 1160 CFG=0
M  V30 1103 1 1160 1161 CFG=0
M  V30 1104 4 1161 1162 CFG=0
M  V30 1105 4 1161 1163 CFG=0
M  V30 1106 1 1153 1164 CFG=0
M  V30 1107 1 1165 1154 CFG=0
M  V30 1108 1 1166 1157 CFG=0
M  V30 1109 1 1167 1157 CFG=0
M  V30 1110 1 1168 1158 CFG=0
M  V30 1111 1 1169 1158 CFG=0
M  V30 1112 1 1170 1159 CFG=0
M  V30 1113 1 1171 1159 CFG=0
M  V30 1114 1 1172 1160 CFG=0
M  V30 1115 1 1173 1162 CFG=0
M  V30 1116 1 1174 1162 CFG=0
M  V30 1117 1 1175 1163 CFG=0
M  V30 1118 1 1176 1163 CFG=0
M  V30 1119 1 1177 1178 CFG=0
M  V30 1120 1 1178 1179 CFG=0
M  V30 1121 2 1179 1180 CFG=0
M  V30 1122 1 1178 1181 CFG=0
M  V30 1123 1 1181 1182 CFG=0
M  V30 1124 4 1182 1183 CFG=0
M  V30 1125 4 1182 1184 CFG=0
M  V30 1126 4 1183 1185 CFG=0
M  V30 1127 4 1184 1186 CFG=0
M  V30 1128 4 1185 1187 CFG=0
M  V30 1129 4 1186 1187 CFG=0
M  V30 1130 1 1187 1188 CFG=0
M  V30 1131 1 1177 1189 CFG=0
M  V30 1132 1 1190 1178 CFG=0
M  V30 1133 1 1191 1181 CFG=0
M  V30 1134 1 1192 1181 CFG=0
M  V30 1135 1 1193 1183 CFG=0
M  V30 1136 1 1194 1184 CFG=0
M  V30 1137 1 1195 1185 CFG=0
M  V30 1138 1 1196 1186 CFG=0
M  V30 1139 1 1197 1188 CFG=0
M  V30 1140 1 1198 1199 CFG=0
M  V30 1141 1 1199 1200 CFG=0
M  V30 1142 2 1200 1201 CFG=0
M  V30 1143 1 1199 1202 CFG=0
M  V30 1144 1 1202 1203 CFG=0
M  V30 1145 1 1203 1204 CFG=0
M  V30 1146 1 1204 1205 CFG=0
M  V30 1147 1 1198 1206 CFG=0
M  V30 1148 1 1207 1199 CFG=0
M  V30 1149 1 1208 1202 CFG=0
M  V30 1150 1 1209 1202 CFG=0
M  V30 1151 1 1210 1203 CFG=0
M  V30 1152 1 1211 1203 CFG=0
M  V30 1153 1 1212 1205 CFG=0
M  V30 1154 1 1213 1205 CFG=0
M  V30 1155 1 1214 1205 CFG=0
M  V30 1156 1 1215 1216 CFG=0
M  V30 1157 1 1216 1217 CFG=0
M  V30 1158 2 1217 1218 CFG=0
M  V30 1159 1 1216 1219 CFG=0
M  V30 1160 1 1219 1220 CFG=0
M  V30 1161 1 1215 1221 CFG=0
M  V30 1162 1 1222 1216 CFG=0
M  V30 1163 1 1223 1219 CFG=0
M  V30 1164 1 1224 1219 CFG=0
M  V30 1165 1 1225 1220 CFG=0
M  V30 1166 1 1226 1227 CFG=0
M  V30 1167 1 1227 1228 CFG=0
M  V30 1168 2 1228 1229 CFG=0
M  V30 1169 1 1227 1230 CFG=0
M  V30 1170 1 1226 1231 CFG=0
M  V30 1171 1 1232 1227 CFG=0
M  V30 1172 1 1233 1230 CFG=0
M  V30 1173 1 1234 1230 CFG=0
M  V30 1174 1 1235 1230 CFG=0
M  V30 1175 1 1236 1237 CFG=0
M  V30 1176 1 1237 1238 CFG=0
M  V30 1177 2 1238 1239 CFG=0
M  V30 1178 1 1237 1240 CFG=0
M  V30 1179 1 1240 1241 CFG=0
M  V30 1180 1 1241 1242 CFG=0
M  V30 1181 1 1241 1243 CFG=0
M  V30 1182 1 1236 1244 CFG=0
M  V30 1183 1 1245 1237 CFG=0
M  V30 1184 1 1246 1240 CFG=0
M  V30 1185 1 1247 1240 CFG=0
M  V30 1186 1 1248 1241 CFG=0
M  V30 1187 1 1249 1242 CFG=0
M  V30 1188 1 1250 1242 CFG=0
M  V30 1189 1 1251 1242 CFG=0
M  V30 1190 1 1252 1243 CFG=0
M  V30 1191 1 1253 1243 CFG=0
M  V30 1192 1 1254 1243 CFG=0
M  V30 1193 1 1255 1256 CFG=0
M  V30 1194 1 1256 1257 CFG=0
M  V30 1195 2 1257 1258 CFG=0
M  V30 1196 1 1256 1259 CFG=0
M  V30 1197 1 1259 1260 CFG=0
M  V30 1198 2 1260 1261 CFG=0
M  V30 1199 1 1260 1262 CFG=0
M  V30 1200 1 1255 1263 CFG=0
M  V30 1201 1 1264 1256 CFG=0
M  V30 1202 1 1265 1259 CFG=0
M  V30 1203 1 1266 1259 CFG=0
M  V30 1204 1 1267 1262 CFG=0
M  V30 1205 1 1268 1262 CFG=0
M  V30 1206 1 1269 1270 CFG=0
M  V30 1207 1 1270 1271 CFG=0
M  V30 1208 2 1271 1272 CFG=0
M  V30 1209 1 1270 1273 CFG=0
M  V30 1210 1 1273 1274 CFG=0
M  V30 1211 1 1274 1275 CFG=0
M  V30 1212 2 1274 1276 CFG=0
M  V30 1213 1 1275 1277 CFG=0
M  V30 1214 1 1276 1278 CFG=0
M  V30 1215 2 1277 1278 CFG=0
M  V30 1216 1 1269 1279 CFG=0
M  V30 1217 1 1280 1270 CFG=0
M  V30 1218 1 1281 1273 CFG=0
M  V30 1219 1 1282 1273 CFG=0
M  V30 1220 1 1283 1275 CFG=0
M  V30 1221 1 1284 1276 CFG=0
M  V30 1222 1 1285 1277 CFG=0
M  V30 1223 1 1286 1278 CFG=0
M  V30 1224 1 1287 1288 CFG=0
M  V30 1225 1 1288 1289 CFG=0
M  V30 1226 2 1289 1290 CFG=0
M  V30 1227 1 1288 1291 CFG=0
M  V30 1228 1 1291 1292 CFG=0
M  V30 1229 1 1291 1293 CFG=0
M  V30 1230 1 1287 1294 CFG=0
M  V30 1231 1 1295 1288 CFG=0
M  V30 1232 1 1296 1291 CFG=0
M  V30 1233 1 1297 1292 CFG=0
M  V30 1234 1 1298 1293 CFG=0
M  V30 1235 1 1299 1293 CFG=0
M  V30 1236 1 1300 1293 CFG=0
M  V30 1237 1 1301 1302 CFG=0
M  V30 1238 1 1302 1303 CFG=0
M  V30 1239 2 1303 1304 CFG=0
M  V30 1240 1 1302 1305 CFG=0
M  V30 1241 1 1305 1306 CFG=0
M  V30 1242 1 1306 1307 CFG=0
M  V30 1243 1 1307 1308 CFG=0
M  V30 1244 1 1308 1309 CFG=0
M  V30 1245 1 1301 1310 CFG=0
M  V30 1246 1 1311 1302 CFG=0
M  V30 1247 1 1312 1305 CFG=0
M  V30 1248 1 1313 1305 CFG=0
M  V30 1249 1 1314 1306 CFG=0
M  V30 1250 1 1315 1306 CFG=0
M  V30 1251 1 1316 1307 CFG=0
M  V30 1252 1 1317 1307 CFG=0
M  V30 1253 1 1318 1308 CFG=0
M  V30 1254 1 1319 1308 CFG=0
M  V30 1255 1 1320 1309 CFG=0
M  V30 1256 1 1321 1309 CFG=0
M  V30 1257 1 1322 1309 CFG=0
M  V30 1258 1 1323 1324 CFG=0
M  V30 1259 1 1324 1325 CFG=0
M  V30 1260 2 1325 1326 CFG=0
M  V30 1261 1 1324 1327 CFG=0
M  V30 1262 1 1327 1328 CFG=0
M  V30 1263 1 1328 1329 CFG=0
M  V30 1264 1 1329 1330 CFG=0
M  V30 1265 1 1330 1331 CFG=0
M  V30 1266 1 1323 1332 CFG=0
M  V30 1267 1 1333 1324 CFG=0
M  V30 1268 1 1334 1327 CFG=0
M  V30 1269 1 1335 1327 CFG=0
M  V30 1270 1 1336 1328 CFG=0
M  V30 1271 1 1337 1328 CFG=0
M  V30 1272 1 1338 1329 CFG=0
M  V30 1273 1 1339 1329 CFG=0
M  V30 1274 1 1340 1330 CFG=0
M  V30 1275 1 1341 1330 CFG=0
M  V30 1276 1 1342 1331 CFG=0
M  V30 1277 1 1343 1331 CFG=0
M  V30 1278 1 1344 1331 CFG=0
M  V30 1279 1 1345 1346 CFG=0
M  V30 1280 1 1346 1347 CFG=0
M  V30 1281 2 1347 1348 CFG=0
M  V30 1282 1 1346 1349 CFG=0
M  V30 1283 1 1349 1350 CFG=0
M  V30 1284 2 1350 1351 CFG=0
M  V30 1285 1 1350 1352 CFG=0
M  V30 1286 1 1351 1353 CFG=0
M  V30 1287 1 1352 1354 CFG=0
M  V30 1288 1 1353 1354 CFG=0
M  V30 1289 2 1352 1355 CFG=0
M  V30 1290 2 1354 1356 CFG=0
M  V30 1291 1 1355 1357 CFG=0
M  V30 1292 1 1356 1358 CFG=0
M  V30 1293 2 1357 1358 CFG=0
M  V30 1294 1 1345 1359 CFG=0
M  V30 1295 1 1360 1346 CFG=0
M  V30 1296 1 1361 1349 CFG=0
M  V30 1297 1 1362 1349 CFG=0
M  V30 1298 1 1363 1351 CFG=0
M  V30 1299 1 1364 1353 CFG=0
M  V30 1300 1 1365 1355 CFG=0
M  V30 1301 1 1366 1356 CFG=0
M  V30 1302 1 1367 1357 CFG=0
M  V30 1303 1 1368 1358 CFG=0
M  V30 1304 1 1369 1370 CFG=0
M  V30 1305 1 1370 1371 CFG=0
M  V30 1306 2 1371 1372 CFG=0
M  V30 1307 1 1370 1373 CFG=0
M  V30 1308 1 1373 1374 CFG=0
M  V30 1309 1 1374 1375 CFG=0
M  V30 1310 1 1375 1376 CFG=0
M  V30 1311 1 1376 1377 CFG=0
M  V30 1312 1 1369 1378 CFG=0
M  V30 1313 1 1379 1370 CFG=0
M  V30 1314 1 1380 1373 CFG=0
M  V30 1315 1 1381 1373 CFG=0
M  V30 1316 1 1382 1374 CFG=0
M  V30 1317 1 1383 1374 CFG=0
M  V30 1318 1 1384 1375 CFG=0
M  V30 1319 1 1385 1375 CFG=0
M  V30 1320 1 1386 1376 CFG=0
M  V30 1321 1 1387 1376 CFG=0
M  V30 1322 1 1388 1377 CFG=0
M  V30 1323 1 1389 1377 CFG=0
M  V30 1324 1 1390 1377 CFG=0
M  V30 1325 1 1391 1392 CFG=0
M  V30 1326 1 1392 1393 CFG=0
M  V30 1327 2 1393 1394 CFG=0
M  V30 1328 1 1392 1395 CFG=0
M  V30 1329 1 1395 1396 CFG=0
M  V30 1330 4 1396 1397 CFG=0
M  V30 1331 4 1396 1398 CFG=0
M  V30 1332 4 1397 1399 CFG=0
M  V30 1333 4 1398 1400 CFG=0
M  V30 1334 4 1399 1401 CFG=0
M  V30 1335 4 1400 1401 CFG=0
M  V30 1336 1 1391 1402 CFG=0
M  V30 1337 1 1403 1392 CFG=0
M  V30 1338 1 1404 1395 CFG=0
M  V30 1339 1 1405 1395 CFG=0
M  V30 1340 1 1406 1397 CFG=0
M  V30 1341 1 1407 1398 CFG=0
M  V30 1342 1 1408 1399 CFG=0
M  V30 1343 1 1409 1400 CFG=0
M  V30 1344 1 1410 1401 CFG=0
M  V30 1345 1 1411 1412 CFG=0
M  V30 1346 1 1412 1413 CFG=0
M  V30 1347 2 1413 1414 CFG=0
M  V30 1348 1 1412 1415 CFG=0
M  V30 1349 1 1415 1416 CFG=0
M  V30 1350 1 1416 1417 CFG=0
M  V30 1351 1 1417 1411 CFG=0
M  V30 1352 1 1418 1412 CFG=0
M  V30 1353 1 1419 1415 CFG=0
M  V30 1354 1 1420 1415 CFG=0
M  V30 1355 1 1421 1416 CFG=0
M  V30 1356 1 1422 1416 CFG=0
M  V30 1357 1 1423 1417 CFG=0
M  V30 1358 1 1424 1417 CFG=0
M  V30 1359 1 1425 1426 CFG=0
M  V30 1360 1 1426 1427 CFG=0
M  V30 1361 2 1427 1428 CFG=0
M  V30 1362 1 1426 1429 CFG=0
M  V30 1363 1 1429 1430 CFG=0
M  V30 1364 1 1430 1431 CFG=0
M  V30 1365 2 1431 1432 CFG=0
M  V30 1366 1 1431 1433 CFG=0
M  V30 1367 1 1425 1434 CFG=0
M  V30 1368 1 1435 1426 CFG=0
M  V30 1369 1 1436 1429 CFG=0
M  V30 1370 1 1437 1429 CFG=0
M  V30 1371 1 1438 1430 CFG=0
M  V30 1372 1 1439 1430 CFG=0
M  V30 1373 1 1440 1433 CFG=0
M  V30 1374 1 1441 1433 CFG=0
M  V30 1375 1 1442 1443 CFG=0
M  V30 1376 1 1443 1444 CFG=0
M  V30 1377 2 1444 1445 CFG=0
M  V30 1378 1 1443 1446 CFG=0
M  V30 1379 1 1446 1447 CFG=0
M  V30 1380 1 1446 1448 CFG=0
M  V30 1381 1 1442 1449 CFG=0
M  V30 1382 1 1450 1443 CFG=0
M  V30 1383 1 1451 1446 CFG=0
M  V30 1384 1 1452 1447 CFG=0
M  V30 1385 1 1453 1447 CFG=0
M  V30 1386 1 1454 1447 CFG=0
M  V30 1387 1 1455 1448 CFG=0
M  V30 1388 1 1456 1448 CFG=0
M  V30 1389 1 1457 1448 CFG=0
M  V30 1390 1 1458 1459 CFG=0
M  V30 1391 1 1459 1460 CFG=0
M  V30 1392 2 1460 1461 CFG=0
M  V30 1393 1 1458 1462 CFG=0
M  V30 1394 1 1463 1459 CFG=0
M  V30 1395 1 1464 1459 CFG=0
M  V30 1396 1 1465 1466 CFG=0
M  V30 1397 1 1466 1467 CFG=0
M  V30 1398 2 1467 1468 CFG=0
M  V30 1399 1 1465 1469 CFG=0
M  V30 1400 1 1470 1466 CFG=0
M  V30 1401 1 1471 1466 CFG=0
M  V30 1402 1 1472 1473 CFG=0
M  V30 1403 1 1473 1474 CFG=0
M  V30 1404 2 1474 1475 CFG=0
M  V30 1405 1 1473 1476 CFG=0
M  V30 1406 1 1476 1477 CFG=0
M  V30 1407 1 1477 1478 CFG=0
M  V30 1408 1 1477 1479 CFG=0
M  V30 1409 1 1472 1480 CFG=0
M  V30 1410 1 1481 1473 CFG=0
M  V30 1411 1 1482 1476 CFG=0
M  V30 1412 1 1483 1476 CFG=0
M  V30 1413 1 1484 1477 CFG=0
M  V30 1414 1 1485 1478 CFG=0
M  V30 1415 1 1486 1478 CFG=0
M  V30 1416 1 1487 1478 CFG=0
M  V30 1417 1 1488 1479 CFG=0
M  V30 1418 1 1489 1479 CFG=0
M  V30 1419 1 1490 1479 CFG=0
M  V30 1420 1 1491 1492 CFG=0
M  V30 1421 1 1492 1493 CFG=0
M  V30 1422 2 1493 1494 CFG=0
M  V30 1423 1 1492 1495 CFG=0
M  V30 1424 1 1495 1496 CFG=0
M  V30 1425 1 1495 1497 CFG=0
M  V30 1426 1 1491 1498 CFG=0
M  V30 1427 1 1499 1492 CFG=0
M  V30 1428 1 1500 1495 CFG=0
M  V30 1429 1 1501 1496 CFG=0
M  V30 1430 1 1502 1497 CFG=0
M  V30 1431 1 1503 1497 CFG=0
M  V30 1432 1 1504 1497 CFG=0
M  V30 1433 1 1505 1506 CFG=0
M  V30 1434 1 1506 1507 CFG=0
M  V30 1435 2 1507 1508 CFG=0
M  V30 1436 1 1506 1509 CFG=0
M  V30 1437 1 1509 1510 CFG=0
M  V30 1438 1 1505 1511 CFG=0
M  V30 1439 1 1512 1506 CFG=0
M  V30 1440 1 1513 1509 CFG=0
M  V30 1441 1 1514 1509 CFG=0
M  V30 1442 1 1515 1510 CFG=0
M  V30 1443 1 1516 1517 CFG=0
M  V30 1444 1 1517 1518 CFG=0
M  V30 1445 2 1518 1519 CFG=0
M  V30 1446 1 1517 1520 CFG=0
M  V30 1447 1 1520 1521 CFG=0
M  V30 1448 1 1520 1522 CFG=0
M  V30 1449 1 1521 1523 CFG=0
M  V30 1450 1 1516 1524 CFG=0
M  V30 1451 1 1525 1517 CFG=0
M  V30 1452 1 1526 1520 CFG=0
M  V30 1453 1 1527 1521 CFG=0
M  V30 1454 1 1528 1521 CFG=0
M  V30 1455 1 1529 1522 CFG=0
M  V30 1456 1 1530 1522 CFG=0
M  V30 1457 1 1531 1522 CFG=0
M  V30 1458 1 1532 1523 CFG=0
M  V30 1459 1 1533 1523 CFG=0
M  V30 1460 1 1534 1523 CFG=0
M  V30 1461 1 1535 1536 CFG=0
M  V30 1462 1 1536 1537 CFG=0
M  V30 1463 2 1537 1538 CFG=0
M  V30 1464 1 1536 1539 CFG=0
M  V30 1465 1 1539 1540 CFG=0
M  V30 1466 1 1540 1541 CFG=0
M  V30 1467 1 1541 1542 CFG=0
M  V30 1468 1 1542 1543 CFG=0
M  V30 1469 1 1535 1544 CFG=0
M  V30 1470 1 1545 1536 CFG=0
M  V30 1471 1 1546 1539 CFG=0
M  V30 1472 1 1547 1539 CFG=0
M  V30 1473 1 1548 1540 CFG=0
M  V30 1474 1 1549 1540 CFG=0
M  V30 1475 1 1550 1541 CFG=0
M  V30 1476 1 1551 1541 CFG=0
M  V30 1477 1 1552 1542 CFG=0
M  V30 1478 1 1553 1542 CFG=0
M  V30 1479 1 1554 1543 CFG=0
M  V30 1480 1 1555 1543 CFG=0
M  V30 1481 1 1556 1543 CFG=0
M  V30 1482 1 1557 1558 CFG=0
M  V30 1483 1 1558 1559 CFG=0
M  V30 1484 2 1559 1560 CFG=0
M  V30 1485 1 1558 1561 CFG=0
M  V30 1486 1 1561 1562 CFG=0
M  V30 1487 2 1562 1563 CFG=0
M  V30 1488 1 1562 1564 CFG=0
M  V30 1489 1 1563 1565 CFG=0
M  V30 1490 1 1564 1566 CFG=0
M  V30 1491 1 1565 1566 CFG=0
M  V30 1492 2 1564 1567 CFG=0
M  V30 1493 2 1566 1568 CFG=0
M  V30 1494 1 1567 1569 CFG=0
M  V30 1495 1 1568 1570 CFG=0
M  V30 1496 2 1569 1570 CFG=0
M  V30 1497 1 1557 1571 CFG=0
M  V30 1498 1 1572 1558 CFG=0
M  V30 1499 1 1573 1561 CFG=0
M  V30 1500 1 1574 1561 CFG=0
M  V30 1501 1 1575 1563 CFG=0
M  V30 1502 1 1576 1565 CFG=0
M  V30 1503 1 1577 1567 CFG=0
M  V30 1504 1 1578 1568 CFG=0
M  V30 1505 1 1579 1569 CFG=0
M  V30 1506 1 1580 1570 CFG=0
M  V30 1507 1 1581 1582 CFG=0
M  V30 1508 1 1582 1583 CFG=0
M  V30 1509 2 1583 1584 CFG=0
M  V30 1510 1 1582 1585 CFG=0
M  V30 1511 1 1581 1586 CFG=0
M  V30 1512 1 1587 1582 CFG=0
M  V30 1513 1 1588 1585 CFG=0
M  V30 1514 1 1589 1585 CFG=0
M  V30 1515 1 1590 1585 CFG=0
M  V30 1516 1 1591 1592 CFG=0
M  V30 1517 1 1592 1593 CFG=0
M  V30 1518 2 1593 1594 CFG=0
M  V30 1519 1 1592 1595 CFG=0
M  V30 1520 1 1595 1596 CFG=0
M  V30 1521 4 1596 1597 CFG=0
M  V30 1522 4 1596 1598 CFG=0
M  V30 1523 1 1591 1599 CFG=0
M  V30 1524 1 1600 1592 CFG=0
M  V30 1525 1 1601 1595 CFG=0
M  V30 1526 1 1602 1595 CFG=0
M  V30 1527 1 1603 1604 CFG=0
M  V30 1528 1 1604 1605 CFG=0
M  V30 1529 2 1605 1606 CFG=0
M  V30 1530 1 1604 1607 CFG=0
M  V30 1531 1 1607 1608 CFG=0
M  V30 1532 2 1608 1609 CFG=0
M  V30 1533 1 1608 1610 CFG=0
M  V30 1534 1 1603 1611 CFG=0
M  V30 1535 1 1612 1604 CFG=0
M  V30 1536 1 1613 1607 CFG=0
M  V30 1537 1 1614 1607 CFG=0
M  V30 1538 1 1615 1610 CFG=0
M  V30 1539 1 1616 1610 CFG=0
M  V30 1540 1 1617 1618 CFG=0
M  V30 1541 1 1618 1619 CFG=0
M  V30 1542 2 1619 1620 CFG=0
M  V30 1543 1 1618 1621 CFG=0
M  V30 1544 1 1621 1622 CFG=0
M  V30 1545 2 1622 1623 CFG=0
M  V30 1546 1 1622 1624 CFG=0
M  V30 1547 1 1617 1625 CFG=0
M  V30 1548 1 1626 1618 CFG=0
M  V30 1549 1 1627 1621 CFG=0
M  V30 1550 1 1628 1621 CFG=0
M  V30 1551 1 1629 1624 CFG=0
M  V30 1552 1 1630 1624 CFG=0
M  V30 1553 1 1631 1632 CFG=0
M  V30 1554 1 1632 1633 CFG=0
M  V30 1555 1 1632 1635 CFG=0
M  V30 1556 1 1633 1634 CFG=0
M  V30 1557 1 1634 1637 CFG=0
M  V30 1558 2 1634 1638 CFG=0
M  V30 1559 2 1634 1639 CFG=0
M  V30 1560 2 1635 1636 CFG=0
M  V30 1561 1 1631 1640 CFG=0
M  V30 1562 1 1632 1641 CFG=0
M  V30 1563 1 1633 1642 CFG=0
M  V30 1564 1 1633 1643 CFG=0
M  V30 1565 1 1644 1645 CFG=0
M  V30 1566 1 1645 1646 CFG=0
M  V30 1567 2 1646 1647 CFG=0
M  V30 1568 1 1645 1648 CFG=0
M  V30 1569 1 1648 1649 CFG=0
M  V30 1570 4 1649 1650 CFG=0
M  V30 1571 4 1649 1651 CFG=0
M  V30 1572 4 1650 1652 CFG=0
M  V30 1573 4 1651 1653 CFG=0
M  V30 1574 4 1652 1654 CFG=0
M  V30 1575 4 1653 1654 CFG=0
M  V30 1576 1 1654 1655 CFG=0
M  V30 1577 1 1644 1656 CFG=0
M  V30 1578 1 1657 1645 CFG=0
M  V30 1579 1 1658 1648 CFG=0
M  V30 1580 1 1659 1648 CFG=0
M  V30 1581 1 1660 1650 CFG=0
M  V30 1582 1 1661 1651 CFG=0
M  V30 1583 1 1662 1652 CFG=0
M  V30 1584 1 1663 1653 CFG=0
M  V30 1585 1 1664 1655 CFG=0
M  V30 1586 1 1665 1666 CFG=0
M  V30 1587 1 1666 1667 CFG=0
M  V30 1588 2 1667 1668 CFG=0
M  V30 1589 1 1666 1669 CFG=0
M  V30 1590 1 1669 1670 CFG=0
M  V30 1591 1 1670 1671 CFG=0
M  V30 1592 1 1670 1672 CFG=0
M  V30 1593 1 1665 1673 CFG=0
M  V30 1594 1 1674 1666 CFG=0
M  V30 1595 1 1675 1669 CFG=0
M  V30 1596 1 1676 1669 CFG=0
M  V30 1597 1 1677 1670 CFG=0
M  V30 1598 1 1678 1671 CFG=0
M  V30 1599 1 1679 1671 CFG=0
M  V30 1600 1 1680 1671 CFG=0
M  V30 1601 1 1681 1672 CFG=0
M  V30 1602 1 1682 1672 CFG=0
M  V30 1603 1 1683 1672 CFG=0
M  V30 1604 1 1684 1685 CFG=0
M  V30 1605 1 1685 1686 CFG=0
M  V30 1606 2 1686 1687 CFG=0
M  V30 1607 1 1685 1688 CFG=0
M  V30 1608 1 1688 1689 CFG=0
M  V30 1609 1 1684 1690 CFG=0
M  V30 1610 1 1691 1685 CFG=0
M  V30 1611 1 1692 1688 CFG=0
M  V30 1612 1 1693 1688 CFG=0
M  V30 1613 1 1694 1689 CFG=0
M  V30 1614 1 1695 1696 CFG=0
M  V30 1615 1 1696 1697 CFG=0
M  V30 1616 2 1697 1698 CFG=0
M  V30 1617 1 1696 1699 CFG=0
M  V30 1618 1 1699 1700 CFG=0
M  V30 1619 1 1695 1701 CFG=0
M  V30 1620 1 1702 1696 CFG=0
M  V30 1621 1 1703 1699 CFG=0
M  V30 1622 1 1704 1699 CFG=0
M  V30 1623 1 1705 1700 CFG=0
M  V30 1624 1 1706 1707 CFG=0
M  V30 1625 1 1707 1708 CFG=0
M  V30 1626 2 1708 1709 CFG=0
M  V30 1627 1 1707 1710 CFG=0
M  V30 1628 1 1710 1711 CFG=0
M  V30 1629 1 1710 1712 CFG=0
M  V30 1630 1 1706 1713 CFG=0
M  V30 1631 1 1714 1707 CFG=0
M  V30 1632 1 1715 1710 CFG=0
M  V30 1633 1 1716 1711 CFG=0
M  V30 1634 1 1717 1711 CFG=0
M  V30 1635 1 1718 1711 CFG=0
M  V30 1636 1 1719 1712 CFG=0
M  V30 1637 1 1720 1712 CFG=0
M  V30 1638 1 1721 1712 CFG=0
M  V30 1639 1 1722 1723 CFG=0
M  V30 1640 1 1723 1724 CFG=0
M  V30 1641 2 1724 1725 CFG=0
M  V30 1642 1 1723 1726 CFG=0
M  V30 1643 1 1726 1727 CFG=0
M  V30 1644 1 1727 1728 CFG=0
M  V30 1645 1 1727 1729 CFG=0
M  V30 1646 1 1722 1730 CFG=0
M  V30 1647 1 1731 1723 CFG=0
M  V30 1648 1 1732 1726 CFG=0
M  V30 1649 1 1733 1726 CFG=0
M  V30 1650 1 1734 1727 CFG=0
M  V30 1651 1 1735 1728 CFG=0
M  V30 1652 1 1736 1728 CFG=0
M  V30 1653 1 1737 1728 CFG=0
M  V30 1654 1 1738 1729 CFG=0
M  V30 1655 1 1739 1729 CFG=0
M  V30 1656 1 1740 1729 CFG=0
M  V30 1657 1 1741 1742 CFG=0
M  V30 1658 1 1742 1743 CFG=0
M  V30 1659 2 1743 1744 CFG=0
M  V30 1660 1 1742 1745 CFG=0
M  V30 1661 1 1745 1746 CFG=0
M  V30 1662 1 1746 1747 CFG=0
M  V30 1663 1 1746 1748 CFG=0
M  V30 1664 1 1741 1749 CFG=0
M  V30 1665 1 1750 1742 CFG=0
M  V30 1666 1 1751 1745 CFG=0
M  V30 1667 1 1752 1745 CFG=0
M  V30 1668 1 1753 1746 CFG=0
M  V30 1669 1 1754 1747 CFG=0
M  V30 1670 1 1755 1747 CFG=0
M  V30 1671 1 1756 1747 CFG=0
M  V30 1672 1 1757 1748 CFG=0
M  V30 1673 1 1758 1748 CFG=0
M  V30 1674 1 1759 1748 CFG=0
M  V30 1675 1 1760 1761 CFG=0
M  V30 1676 1 1761 1762 CFG=0
M  V30 1677 2 1762 1763 CFG=0
M  V30 1678 1 1761 1764 CFG=0
M  V30 1679 1 1760 1765 CFG=0
M  V30 1680 1 1766 1761 CFG=0
M  V30 1681 1 1767 1764 CFG=0
M  V30 1682 1 1768 1764 CFG=0
M  V30 1683 1 1769 1764 CFG=0
M  V30 1684 1 1770 1771 CFG=0
M  V30 1685 1 1771 1772 CFG=0
M  V30 1686 2 1772 1773 CFG=0
M  V30 1687 1 1771 1774 CFG=0
M  V30 1688 1 1774 1775 CFG=0
M  V30 1689 1 1775 1776 CFG=0
M  V30 1690 1 1775 1777 CFG=0
M  V30 1691 1 1770 1778 CFG=0
M  V30 1692 1 1779 1771 CFG=0
M  V30 1693 1 1780 1774 CFG=0
M  V30 1694 1 1781 1774 CFG=0
M  V30 1695 1 1782 1775 CFG=0
M  V30 1696 1 1783 1776 CFG=0
M  V30 1697 1 1784 1776 CFG=0
M  V30 1698 1 1785 1776 CFG=0
M  V30 1699 1 1786 1777 CFG=0
M  V30 1700 1 1787 1777 CFG=0
M  V30 1701 1 1788 1777 CFG=0
M  V30 1702 1 1789 1790 CFG=0
M  V30 1703 1 1790 1791 CFG=0
M  V30 1704 2 1791 1792 CFG=0
M  V30 1705 1 1790 1793 CFG=0
M  V30 1706 1 1793 1794 CFG=0
M  V30 1707 1 1794 1795 CFG=0
M  V30 1708 2 1795 1796 CFG=0
M  V30 1709 1 1795 1797 CFG=0
M  V30 1710 1 1789 1798 CFG=0
M  V30 1711 1 1799 1790 CFG=0
M  V30 1712 1 1800 1793 CFG=0
M  V30 1713 1 1801 1793 CFG=0
M  V30 1714 1 1802 1794 CFG=0
M  V30 1715 1 1803 1794 CFG=0
M  V30 1716 1 1804 1797 CFG=0
M  V30 1717 1 1805 1797 CFG=0
M  V30 1718 1 1806 1807 CFG=0
M  V30 1719 1 1807 1808 CFG=0
M  V30 1720 2 1808 1809 CFG=0
M  V30 1721 1 1807 1810 CFG=0
M  V30 1722 1 1810 1811 CFG=0
M  V30 1723 1 1811 1812 CFG=0
M  V30 1724 2 1812 1813 CFG=0
M  V30 1725 1 1812 1814 CFG=0
M  V30 1726 1 1806 1815 CFG=0
M  V30 1727 1 1816 1807 CFG=0
M  V30 1728 1 1817 1810 CFG=0
M  V30 1729 1 1818 1810 CFG=0
M  V30 1730 1 1819 1811 CFG=0
M  V30 1731 1 1820 1811 CFG=0
M  V30 1732 1 1821 1814 CFG=0
M  V30 1733 1 1822 1814 CFG=0
M  V30 1734 1 1823 1824 CFG=0
M  V30 1735 1 1824 1825 CFG=0
M  V30 1736 2 1825 1826 CFG=0
M  V30 1737 1 1824 1827 CFG=0
M  V30 1738 1 1827 1828 CFG=0
M  V30 1739 1 1828 1829 CFG=0
M  V30 1740 1 1828 1830 CFG=0
M  V30 1741 1 1823 1831 CFG=0
M  V30 1742 1 1832 1824 CFG=0
M  V30 1743 1 1833 1827 CFG=0
M  V30 1744 1 1834 1827 CFG=0
M  V30 1745 1 1835 1828 CFG=0
M  V30 1746 1 1836 1829 CFG=0
M  V30 1747 1 1837 1829 CFG=0
M  V30 1748 1 1838 1829 CFG=0
M  V30 1749 1 1839 1830 CFG=0
M  V30 1750 1 1840 1830 CFG=0
M  V30 1751 1 1841 1830 CFG=0
M  V30 1752 1 1842 1843 CFG=0
M  V30 1753 1 1843 1844 CFG=0
M  V30 1754 2 1844 1845 CFG=0
M  V30 1755 1 1843 1846 CFG=0
M  V30 1756 1 1846 1847 CFG=0
M  V30 1757 1 1847 1848 CFG=0
M  V30 1758 4 1848 1849 CFG=0
M  V30 1759 4 1848 1850 CFG=0
M  V30 1760 1 1842 1851 CFG=0
M  V30 1761 1 1852 1843 CFG=0
M  V30 1762 1 1853 1846 CFG=0
M  V30 1763 1 1854 1846 CFG=0
M  V30 1764 1 1855 1847 CFG=0
M  V30 1765 1 1856 1847 CFG=0
M  V30 1766 1 1857 1858 CFG=0
M  V30 1767 1 1858 1859 CFG=0
M  V30 1768 2 1859 1860 CFG=0
M  V30 1769 1 1858 1861 CFG=0
M  V30 1770 1 1861 1862 CFG=0
M  V30 1771 1 1861 1863 CFG=0
M  V30 1772 1 1857 1864 CFG=0
M  V30 1773 1 1865 1858 CFG=0
M  V30 1774 1 1866 1861 CFG=0
M  V30 1775 1 1867 1862 CFG=0
M  V30 1776 1 1868 1862 CFG=0
M  V30 1777 1 1869 1862 CFG=0
M  V30 1778 1 1870 1863 CFG=0
M  V30 1779 1 1871 1863 CFG=0
M  V30 1780 1 1872 1863 CFG=0
M  V30 1781 1 1873 1874 CFG=0
M  V30 1782 1 1874 1875 CFG=0
M  V30 1783 2 1875 1876 CFG=0
M  V30 1784 1 1874 1877 CFG=0
M  V30 1785 1 1877 1878 CFG=0
M  V30 1786 1 1878 1879 CFG=0
M  V30 1787 1 1879 1880 CFG=0
M  V30 1788 1 1880 1881 CFG=0
M  V30 1789 1 1873 1882 CFG=0
M  V30 1790 1 1883 1874 CFG=0
M  V30 1791 1 1884 1877 CFG=0
M  V30 1792 1 1885 1877 CFG=0
M  V30 1793 1 1886 1878 CFG=0
M  V30 1794 1 1887 1878 CFG=0
M  V30 1795 1 1888 1879 CFG=0
M  V30 1796 1 1889 1879 CFG=0
M  V30 1797 1 1890 1880 CFG=0
M  V30 1798 1 1891 1880 CFG=0
M  V30 1799 1 1892 1881 CFG=0
M  V30 1800 1 1893 1881 CFG=0
M  V30 1801 1 1894 1881 CFG=0
M  V30 1802 1 1895 1896 CFG=0
M  V30 1803 1 1896 1897 CFG=0
M  V30 1804 2 1897 1898 CFG=0
M  V30 1805 1 1896 1899 CFG=0
M  V30 1806 1 1899 1900 CFG=0
M  V30 1807 4 1900 1901 CFG=0
M  V30 1808 4 1900 1902 CFG=0
M  V30 1809 4 1901 1903 CFG=0
M  V30 1810 4 1902 1904 CFG=0
M  V30 1811 4 1903 1905 CFG=0
M  V30 1812 4 1904 1905 CFG=0
M  V30 1813 1 1895 1906 CFG=0
M  V30 1814 1 1907 1896 CFG=0
M  V30 1815 1 1908 1899 CFG=0
M  V30 1816 1 1909 1899 CFG=0
M  V30 1817 1 1910 1901 CFG=0
M  V30 1818 1 1911 1902 CFG=0
M  V30 1819 1 1912 1903 CFG=0
M  V30 1820 1 1913 1904 CFG=0
M  V30 1821 1 1914 1905 CFG=0
M  V30 1822 1 1915 1916 CFG=0
M  V30 1823 1 1916 1917 CFG=0
M  V30 1824 2 1917 1918 CFG=0
M  V30 1825 1 1916 1919 CFG=0
M  V30 1826 1 1919 1920 CFG=0
M  V30 1827 2 1920 1921 CFG=0
M  V30 1828 1 1920 1922 CFG=0
M  V30 1829 1 1915 1923 CFG=0
M  V30 1830 1 1924 1916 CFG=0
M  V30 1831 1 1925 1919 CFG=0
M  V30 1832 1 1926 1919 CFG=0
M  V30 1833 1 1927 1922 CFG=0
M  V30 1834 1 1928 1922 CFG=0
M  V30 1835 1 1929 1930 CFG=0
M  V30 1836 1 1930 1931 CFG=0
M  V30 1837 2 1931 1932 CFG=0
M  V30 1838 1 1930 1933 CFG=0
M  V30 1839 1 1929 1934 CFG=0
M  V30 1840 1 1935 1930 CFG=0
M  V30 1841 1 1936 1933 CFG=0
M  V30 1842 1 1937 1933 CFG=0
M  V30 1843 1 1938 1933 CFG=0
M  V30 1844 1 1939 1940 CFG=0
M  V30 1845 1 1940 1941 CFG=0
M  V30 1846 2 1941 1942 CFG=0
M  V30 1847 1 1940 1943 CFG=0
M  V30 1848 1 1943 1944 CFG=0
M  V30 1849 1 1944 1945 CFG=0
M  V30 1850 1 1945 1939 CFG=0
M  V30 1851 1 1946 1940 CFG=0
M  V30 1852 1 1947 1943 CFG=0
M  V30 1853 1 1948 1943 CFG=0
M  V30 1854 1 1949 1944 CFG=0
M  V30 1855 1 1950 1944 CFG=0
M  V30 1856 1 1951 1945 CFG=0
M  V30 1857 1 1952 1945 CFG=0
M  V30 1858 1 1953 1954 CFG=0
M  V30 1859 1 1954 1955 CFG=0
M  V30 1860 2 1955 1956 CFG=0
M  V30 1861 1 1954 1957 CFG=0
M  V30 1862 1 1953 1958 CFG=0
M  V30 1863 1 1959 1954 CFG=0
M  V30 1864 1 1960 1957 CFG=0
M  V30 1865 1 1961 1957 CFG=0
M  V30 1866 1 1962 1957 CFG=0
M  V30 1867 1 1963 1964 CFG=0
M  V30 1868 1 1964 1965 CFG=0
M  V30 1869 2 1965 1966 CFG=0
M  V30 1870 1 1964 1967 CFG=0
M  V30 1871 1 1967 1968 CFG=0
M  V30 1872 1 1968 1969 CFG=0
M  V30 1873 1 1968 1970 CFG=0
M  V30 1874 1 1963 1971 CFG=0
M  V30 1875 1 1972 1964 CFG=0
M  V30 1876 1 1973 1967 CFG=0
M  V30 1877 1 1974 1967 CFG=0
M  V30 1878 1 1975 1968 CFG=0
M  V30 1879 1 1976 1969 CFG=0
M  V30 1880 1 1977 1969 CFG=0
M  V30 1881 1 1978 1969 CFG=0
M  V30 1882 1 1979 1970 CFG=0
M  V30 1883 1 1980 1970 CFG=0
M  V30 1884 1 1981 1970 CFG=0
M  V30 1885 1 1982 1983 CFG=0
M  V30 1886 1 1983 1984 CFG=0
M  V30 1887 2 1984 1985 CFG=0
M  V30 1888 1 1983 1986 CFG=0
M  V30 1889 1 1986 1987 CFG=0
M  V30 1890 1 1987 1988 CFG=0
M  V30 1891 2 1988 1989 CFG=0
M  V30 1892 1 1988 1990 CFG=0
M  V30 1893 1 1982 1991 CFG=0
M  V30 1894 1 1992 1983 CFG=0
M  V30 1895 1 1993 1986 CFG=0
M  V30 1896 1 1994 1986 CFG=0
M  V30 1897 1 1995 1987 CFG=0
M  V30 1898 1 1996 1987 CFG=0
M  V30 1899 1 1997 1990 CFG=0
M  V30 1900 1 1998 1990 CFG=0
M  V30 1901 1 1999 2000 CFG=0
M  V30 1902 1 2000 2001 CFG=0
M  V30 1903 2 2001 2002 CFG=0
M  V30 1904 1 2000 2003 CFG=0
M  V30 1905 1 2003 2004 CFG=0
M  V30 1906 1 2004 2005 CFG=0
M  V30 1907 4 2005 2006 CFG=0
M  V30 1908 4 2005 2007 CFG=0
M  V30 1909 1 1999 2008 CFG=0
M  V30 1910 1 2009 2000 CFG=0
M  V30 1911 1 2010 2003 CFG=0
M  V30 1912 1 2011 2003 CFG=0
M  V30 1913 1 2012 2004 CFG=0
M  V30 1914 1 2013 2004 CFG=0
M  V30 1915 1 2014 2015 CFG=0
M  V30 1916 1 2015 2016 CFG=0
M  V30 1917 2 2016 2017 CFG=0
M  V30 1918 1 2015 2018 CFG=0
M  V30 1919 1 2014 2019 CFG=0
M  V30 1920 1 2020 2015 CFG=0
M  V30 1921 1 2021 2018 CFG=0
M  V30 1922 1 2022 2018 CFG=0
M  V30 1923 1 2023 2018 CFG=0
M  V30 1924 1 2024 2025 CFG=0
M  V30 1925 1 2025 2026 CFG=0
M  V30 1926 2 2026 2027 CFG=0
M  V30 1927 1 2025 2028 CFG=0
M  V30 1928 1 2028 2029 CFG=0
M  V30 1929 4 2029 2030 CFG=0
M  V30 1930 4 2029 2031 CFG=0
M  V30 1931 4 2030 2032 CFG=0
M  V30 1932 4 2031 2033 CFG=0
M  V30 1933 4 2032 2034 CFG=0
M  V30 1934 4 2033 2034 CFG=0
M  V30 1935 1 2034 2035 CFG=0
M  V30 1936 1 2024 2036 CFG=0
M  V30 1937 1 2037 2025 CFG=0
M  V30 1938 1 2038 2028 CFG=0
M  V30 1939 1 2039 2028 CFG=0
M  V30 1940 1 2040 2030 CFG=0
M  V30 1941 1 2041 2031 CFG=0
M  V30 1942 1 2042 2032 CFG=0
M  V30 1943 1 2043 2033 CFG=0
M  V30 1944 1 2044 2035 CFG=0
M  V30 1945 1 2045 2046 CFG=0
M  V30 1946 1 2046 2047 CFG=0
M  V30 1947 2 2047 2048 CFG=0
M  V30 1948 1 2046 2049 CFG=0
M  V30 1949 1 2049 2050 CFG=0
M  V30 1950 4 2050 2051 CFG=0
M  V30 1951 4 2050 2052 CFG=0
M  V30 1952 4 2051 2053 CFG=0
M  V30 1953 4 2052 2054 CFG=0
M  V30 1954 4 2053 2055 CFG=0
M  V30 1955 4 2054 2055 CFG=0
M  V30 1956 1 2055 2056 CFG=0
M  V30 1957 1 2045 2057 CFG=0
M  V30 1958 1 2058 2046 CFG=0
M  V30 1959 1 2059 2049 CFG=0
M  V30 1960 1 2060 2049 CFG=0
M  V30 1961 1 2061 2051 CFG=0
M  V30 1962 1 2062 2052 CFG=0
M  V30 1963 1 2063 2053 CFG=0
M  V30 1964 1 2064 2054 CFG=0
M  V30 1965 1 2065 2056 CFG=0
M  V30 1966 1 2066 2067 CFG=0
M  V30 1967 1 2067 2068 CFG=0
M  V30 1968 2 2068 2069 CFG=0
M  V30 1969 1 2067 2070 CFG=0
M  V30 1970 1 2070 2071 CFG=0
M  V30 1971 1 2071 2072 CFG=0
M  V30 1972 1 2072 2073 CFG=0
M  V30 1973 1 2073 2074 CFG=0
M  V30 1974 4 2074 2075 CFG=0
M  V30 1975 4 2074 2076 CFG=0
M  V30 1976 1 2066 2077 CFG=0
M  V30 1977 1 2078 2067 CFG=0
M  V30 1978 1 2079 2070 CFG=0
M  V30 1979 1 2080 2070 CFG=0
M  V30 1980 1 2081 2071 CFG=0
M  V30 1981 1 2082 2071 CFG=0
M  V30 1982 1 2083 2072 CFG=0
M  V30 1983 1 2084 2072 CFG=0
M  V30 1984 1 2085 2073 CFG=0
M  V30 1985 1 2086 2075 CFG=0
M  V30 1986 1 2087 2075 CFG=0
M  V30 1987 1 2088 2076 CFG=0
M  V30 1988 1 2089 2076 CFG=0
M  V30 1989 1 2090 2091 CFG=0
M  V30 1990 1 2091 2092 CFG=0
M  V30 1991 2 2092 2093 CFG=0
M  V30 1992 1 2091 2094 CFG=0
M  V30 1993 1 2090 2095 CFG=0
M  V30 1994 1 2096 2091 CFG=0
M  V30 1995 1 2097 2094 CFG=0
M  V30 1996 1 2098 2094 CFG=0
M  V30 1997 1 2099 2094 CFG=0
M  V30 1998 1 2100 2101 CFG=0
M  V30 1999 1 2101 2102 CFG=0
M  V30 2000 2 2102 2103 CFG=0
M  V30 2001 1 2101 2104 CFG=0
M  V30 2002 1 2104 2105 CFG=0
M  V30 2003 1 2105 2106 CFG=0
M  V30 2004 1 2106 2107 CFG=0
M  V30 2005 1 2107 2108 CFG=0
M  V30 2006 4 2108 2109 CFG=0
M  V30 2007 4 2108 2110 CFG=0
M  V30 2008 1 2100 2111 CFG=0
M  V30 2009 1 2112 2101 CFG=0
M  V30 2010 1 2113 2104 CFG=0
M  V30 2011 1 2114 2104 CFG=0
M  V30 2012 1 2115 2105 CFG=0
M  V30 2013 1 2116 2105 CFG=0
M  V30 2014 1 2117 2106 CFG=0
M  V30 2015 1 2118 2106 CFG=0
M  V30 2016 1 2119 2107 CFG=0
M  V30 2017 1 2120 2109 CFG=0
M  V30 2018 1 2121 2109 CFG=0
M  V30 2019 1 2122 2110 CFG=0
M  V30 2020 1 2123 2110 CFG=0
M  V30 2021 1 2124 2125 CFG=0
M  V30 2022 1 2125 2126 CFG=0
M  V30 2023 2 2126 2127 CFG=0
M  V30 2024 1 2125 2128 CFG=0
M  V30 2025 1 2124 2129 CFG=0
M  V30 2026 1 2130 2125 CFG=0
M  V30 2027 1 2131 2128 CFG=0
M  V30 2028 1 2132 2128 CFG=0
M  V30 2029 1 2133 2128 CFG=0
M  V30 2030 1 2134 2135 CFG=0
M  V30 2031 1 2135 2136 CFG=0
M  V30 2032 2 2136 2137 CFG=0
M  V30 2033 1 2134 2138 CFG=0
M  V30 2034 1 2139 2135 CFG=0
M  V30 2035 1 2140 2135 CFG=0
M  V30 2036 1 2141 2142 CFG=0
M  V30 2037 1 2142 2143 CFG=0
M  V30 2038 2 2143 2144 CFG=0
M  V30 2039 1 2142 2145 CFG=0
M  V30 2040 1 2145 2146 CFG=0
M  V30 2041 4 2146 2147 CFG=0
M  V30 2042 4 2146 2148 CFG=0
M  V30 2043 1 2141 2149 CFG=0
M  V30 2044 1 2150 2142 CFG=0
M  V30 2045 1 2151 2145 CFG=0
M  V30 2046 1 2152 2145 CFG=0
M  V30 2047 1 2153 2154 CFG=0
M  V30 2048 1 2154 2155 CFG=0
M  V30 2049 2 2155 2156 CFG=0
M  V30 2050 1 2154 2157 CFG=0
M  V30 2051 1 2153 2158 CFG=0
M  V30 2052 1 2159 2154 CFG=0
M  V30 2053 1 2160 2157 CFG=0
M  V30 2054 1 2161 2157 CFG=0
M  V30 2055 1 2162 2157 CFG=0
M  V30 2056 1 2163 2164 CFG=0
M  V30 2057 1 2164 2165 CFG=0
M  V30 2058 2 2165 2166 CFG=0
M  V30 2059 1 2164 2167 CFG=0
M  V30 2060 1 2163 2168 CFG=0
M  V30 2061 1 2169 2164 CFG=0
M  V30 2062 1 2170 2167 CFG=0
M  V30 2063 1 2171 2167 CFG=0
M  V30 2064 1 2172 2167 CFG=0
M  V30 2065 1 2173 2174 CFG=0
M  V30 2066 1 2174 2175 CFG=0
M  V30 2067 2 2175 2176 CFG=0
M  V30 2068 1 2174 2177 CFG=0
M  V30 2069 1 2177 2178 CFG=0
M  V30 2070 2 2178 2179 CFG=0
M  V30 2071 1 2178 2180 CFG=0
M  V30 2072 1 2173 2181 CFG=0
M  V30 2073 1 2182 2174 CFG=0
M  V30 2074 1 2183 2177 CFG=0
M  V30 2075 1 2184 2177 CFG=0
M  V30 2076 1 2185 2180 CFG=0
M  V30 2077 1 2186 2180 CFG=0
M  V30 2078 1 2187 2188 CFG=0
M  V30 2079 1 2188 2189 CFG=0
M  V30 2080 2 2189 2190 CFG=0
M  V30 2081 1 2188 2191 CFG=0
M  V30 2082 1 2191 2192 CFG=0
M  V30 2083 4 2192 2193 CFG=0
M  V30 2084 4 2192 2194 CFG=0
M  V30 2085 4 2193 2195 CFG=0
M  V30 2086 4 2194 2196 CFG=0
M  V30 2087 4 2195 2197 CFG=0
M  V30 2088 4 2196 2197 CFG=0
M  V30 2089 1 2187 2198 CFG=0
M  V30 2090 1 2199 2188 CFG=0
M  V30 2091 1 2200 2191 CFG=0
M  V30 2092 1 2201 2191 CFG=0
M  V30 2093 1 2202 2193 CFG=0
M  V30 2094 1 2203 2194 CFG=0
M  V30 2095 1 2204 2195 CFG=0
M  V30 2096 1 2205 2196 CFG=0
M  V30 2097 1 2206 2197 CFG=0
M  V30 2098 1 2207 2208 CFG=0
M  V30 2099 1 2208 2209 CFG=0
M  V30 2100 2 2209 2210 CFG=0
M  V30 2101 1 2208 2211 CFG=0
M  V30 2102 1 2211 2212 CFG=0
M  V30 2103 1 2207 2213 CFG=0
M  V30 2104 1 2214 2208 CFG=0
M  V30 2105 1 2215 2211 CFG=0
M  V30 2106 1 2216 2211 CFG=0
M  V30 2107 1 2217 2212 CFG=0
M  V30 2108 1 2218 2219 CFG=0
M  V30 2109 1 2219 2220 CFG=0
M  V30 2110 2 2220 2221 CFG=0
M  V30 2111 1 2219 2222 CFG=0
M  V30 2112 1 2218 2223 CFG=0
M  V30 2113 1 2224 2219 CFG=0
M  V30 2114 1 2225 2222 CFG=0
M  V30 2115 1 2226 2222 CFG=0
M  V30 2116 1 2227 2222 CFG=0
M  V30 2117 1 2228 2229 CFG=0
M  V30 2118 1 2229 2230 CFG=0
M  V30 2119 2 2230 2231 CFG=0
M  V30 2120 1 2229 2232 CFG=0
M  V30 2121 1 2232 2233 CFG=0
M  V30 2122 1 2233 2234 CFG=0
M  V30 2123 1 2233 2235 CFG=0
M  V30 2124 1 2228 2236 CFG=0
M  V30 2125 1 2237 2229 CFG=0
M  V30 2126 1 2238 2232 CFG=0
M  V30 2127 1 2239 2232 CFG=0
M  V30 2128 1 2240 2233 CFG=0
M  V30 2129 1 2241 2234 CFG=0
M  V30 2130 1 2242 2234 CFG=0
M  V30 2131 1 2243 2234 CFG=0
M  V30 2132 1 2244 2235 CFG=0
M  V30 2133 1 2245 2235 CFG=0
M  V30 2134 1 2246 2235 CFG=0
M  V30 2135 1 2247 2248 CFG=0
M  V30 2136 1 2248 2249 CFG=0
M  V30 2137 2 2249 2250 CFG=0
M  V30 2138 1 2248 2251 CFG=0
M  V30 2139 1 2251 2252 CFG=0
M  V30 2140 1 2251 2253 CFG=0
M  V30 2141 1 2252 2254 CFG=0
M  V30 2142 1 2247 2255 CFG=0
M  V30 2143 1 2256 2248 CFG=0
M  V30 2144 1 2257 2251 CFG=0
M  V30 2145 1 2258 2252 CFG=0
M  V30 2146 1 2259 2252 CFG=0
M  V30 2147 1 2260 2253 CFG=0
M  V30 2148 1 2261 2253 CFG=0
M  V30 2149 1 2262 2253 CFG=0
M  V30 2150 1 2263 2254 CFG=0
M  V30 2151 1 2264 2254 CFG=0
M  V30 2152 1 2265 2254 CFG=0
M  V30 2153 1 2266 2267 CFG=0
M  V30 2154 1 2267 2268 CFG=0
M  V30 2155 2 2268 2269 CFG=0
M  V30 2156 1 2267 2270 CFG=0
M  V30 2157 1 2270 2271 CFG=0
M  V30 2158 1 2271 2272 CFG=0
M  V30 2159 1 2271 2273 CFG=0
M  V30 2160 1 2266 2274 CFG=0
M  V30 2161 1 2275 2267 CFG=0
M  V30 2162 1 2276 2270 CFG=0
M  V30 2163 1 2277 2270 CFG=0
M  V30 2164 1 2278 2271 CFG=0
M  V30 2165 1 2279 2272 CFG=0
M  V30 2166 1 2280 2272 CFG=0
M  V30 2167 1 2281 2272 CFG=0
M  V30 2168 1 2282 2273 CFG=0
M  V30 2169 1 2283 2273 CFG=0
M  V30 2170 1 2284 2273 CFG=0
M  V30 2171 1 2285 2286 CFG=0
M  V30 2172 1 2286 2287 CFG=0
M  V30 2173 2 2287 2288 CFG=0
M  V30 2174 1 2286 2289 CFG=0
M  V30 2175 1 2285 2290 CFG=0
M  V30 2176 1 2291 2286 CFG=0
M  V30 2177 1 2292 2289 CFG=0
M  V30 2178 1 2293 2289 CFG=0
M  V30 2179 1 2294 2289 CFG=0
M  V30 2180 1 2295 2296 CFG=0
M  V30 2181 1 2296 2297 CFG=0
M  V30 2182 2 2297 2298 CFG=0
M  V30 2183 1 2296 2299 CFG=0
M  V30 2184 1 2299 2300 CFG=0
M  V30 2185 4 2300 2301 CFG=0
M  V30 2186 4 2300 2302 CFG=0
M  V30 2187 4 2301 2303 CFG=0
M  V30 2188 4 2302 2304 CFG=0
M  V30 2189 4 2303 2305 CFG=0
M  V30 2190 4 2304 2305 CFG=0
M  V30 2191 1 2305 2306 CFG=0
M  V30 2192 1 2295 2307 CFG=0
M  V30 2193 1 2308 2296 CFG=0
M  V30 2194 1 2309 2299 CFG=0
M  V30 2195 1 2310 2299 CFG=0
M  V30 2196 1 2311 2301 CFG=0
M  V30 2197 1 2312 2302 CFG=0
M  V30 2198 1 2313 2303 CFG=0
M  V30 2199 1 2314 2304 CFG=0
M  V30 2200 1 2315 2306 CFG=0
M  V30 2201 1 2316 2317 CFG=0
M  V30 2202 1 2317 2318 CFG=0
M  V30 2203 2 2318 2319 CFG=0
M  V30 2204 1 2317 2320 CFG=0
M  V30 2205 1 2320 2321 CFG=0
M  V30 2206 1 2316 2322 CFG=0
M  V30 2207 1 2323 2317 CFG=0
M  V30 2208 1 2324 2320 CFG=0
M  V30 2209 1 2325 2320 CFG=0
M  V30 2210 1 2326 2321 CFG=0
M  V30 2211 1 2327 2328 CFG=0
M  V30 2212 1 2328 2329 CFG=0
M  V30 2213 2 2329 2330 CFG=0
M  V30 2214 1 2328 2331 CFG=0
M  V30 2215 1 2331 2332 CFG=0
M  V30 2216 2 2332 2333 CFG=0
M  V30 2217 1 2332 2334 CFG=0
M  V30 2218 1 2327 2335 CFG=0
M  V30 2219 1 2336 2328 CFG=0
M  V30 2220 1 2337 2331 CFG=0
M  V30 2221 1 2338 2331 CFG=0
M  V30 2222 1 2339 2334 CFG=0
M  V30 2223 1 2340 2334 CFG=0
M  V30 2224 1 2341 2342 CFG=0
M  V30 2225 1 2342 2343 CFG=0
M  V30 2226 2 2343 2344 CFG=0
M  V30 2227 1 2342 2345 CFG=0
M  V30 2228 1 2345 2346 CFG=0
M  V30 2229 1 2346 2347 CFG=0
M  V30 2230 1 2347 2348 CFG=0
M  V30 2231 1 2348 2349 CFG=0
M  V30 2232 1 2341 2350 CFG=0
M  V30 2233 1 2351 2342 CFG=0
M  V30 2234 1 2352 2345 CFG=0
M  V30 2235 1 2353 2345 CFG=0
M  V30 2236 1 2354 2346 CFG=0
M  V30 2237 1 2355 2346 CFG=0
M  V30 2238 1 2356 2347 CFG=0
M  V30 2239 1 2357 2347 CFG=0
M  V30 2240 1 2358 2348 CFG=0
M  V30 2241 1 2359 2348 CFG=0
M  V30 2242 1 2360 2349 CFG=0
M  V30 2243 1 2361 2349 CFG=0
M  V30 2244 1 2362 2349 CFG=0
M  V30 2245 1 2363 2364 CFG=0
M  V30 2246 1 2364 2365 CFG=0
M  V30 2247 2 2365 2366 CFG=0
M  V30 2248 1 2364 2367 CFG=0
M  V30 2249 1 2367 2368 CFG=0
M  V30 2250 1 2367 2369 CFG=0
M  V30 2251 1 2363 2370 CFG=0
M  V30 2252 1 2371 2364 CFG=0
M  V30 2253 1 2372 2367 CFG=0
M  V30 2254 1 2373 2368 CFG=0
M  V30 2255 1 2374 2369 CFG=0
M  V30 2256 1 2375 2369 CFG=0
M  V30 2257 1 2376 2369 CFG=0
M  V30 2258 1 2377 2378 CFG=0
M  V30 2259 1 2378 2379 CFG=0
M  V30 2260 2 2379 2380 CFG=0
M  V30 2261 1 2378 2381 CFG=0
M  V30 2262 1 2381 2382 CFG=0
M  V30 2263 1 2381 2383 CFG=0
M  V30 2264 1 2377 2384 CFG=0
M  V30 2265 1 2385 2378 CFG=0
M  V30 2266 1 2386 2381 CFG=0
M  V30 2267 1 2387 2382 CFG=0
M  V30 2268 1 2388 2382 CFG=0
M  V30 2269 1 2389 2382 CFG=0
M  V30 2270 1 2390 2383 CFG=0
M  V30 2271 1 2391 2383 CFG=0
M  V30 2272 1 2392 2383 CFG=0
M  V30 2273 1 2393 2394 CFG=0
M  V30 2274 1 2394 2395 CFG=0
M  V30 2275 2 2395 2396 CFG=0
M  V30 2276 1 2393 2397 CFG=0
M  V30 2277 1 2398 2394 CFG=0
M  V30 2278 1 2399 2394 CFG=0
M  V30 2279 1 2400 2401 CFG=0
M  V30 2280 1 2401 2402 CFG=0
M  V30 2281 2 2402 2403 CFG=0
M  V30 2282 1 2401 2404 CFG=0
M  V30 2283 1 2404 2405 CFG=0
M  V30 2284 1 2405 2406 CFG=0
M  V30 2285 4 2406 2407 CFG=0
M  V30 2286 4 2406 2408 CFG=0
M  V30 2287 1 2400 2409 CFG=0
M  V30 2288 1 2410 2401 CFG=0
M  V30 2289 1 2411 2404 CFG=0
M  V30 2290 1 2412 2404 CFG=0
M  V30 2291 1 2413 2405 CFG=0
M  V30 2292 1 2414 2405 CFG=0
M  V30 2293 1 2415 2416 CFG=0
M  V30 2294 1 2416 2417 CFG=0
M  V30 2295 2 2417 2418 CFG=0
M  V30 2296 1 2416 2419 CFG=0
M  V30 2297 1 2419 2420 CFG=0
M  V30 2298 1 2420 2421 CFG=0
M  V30 2299 1 2420 2422 CFG=0
M  V30 2300 1 2415 2423 CFG=0
M  V30 2301 1 2424 2416 CFG=0
M  V30 2302 1 2425 2419 CFG=0
M  V30 2303 1 2426 2419 CFG=0
M  V30 2304 1 2427 2420 CFG=0
M  V30 2305 1 2428 2421 CFG=0
M  V30 2306 1 2429 2421 CFG=0
M  V30 2307 1 2430 2421 CFG=0
M  V30 2308 1 2431 2422 CFG=0
M  V30 2309 1 2432 2422 CFG=0
M  V30 2310 1 2433 2422 CFG=0
M  V30 2311 1 2434 2435 CFG=0
M  V30 2312 1 2435 2436 CFG=0
M  V30 2313 2 2436 2437 CFG=0
M  V30 2314 1 2434 2438 CFG=0
M  V30 2315 1 2439 2435 CFG=0
M  V30 2316 1 2440 2435 CFG=0
M  V30 2317 1 2441 2442 CFG=0
M  V30 2318 1 2442 2443 CFG=0
M  V30 2319 2 2443 2444 CFG=0
M  V30 2320 1 2442 2445 CFG=0
M  V30 2321 1 2445 2446 CFG=0
M  V30 2322 4 2446 2447 CFG=0
M  V30 2323 4 2446 2448 CFG=0
M  V30 2324 1 2441 2449 CFG=0
M  V30 2325 1 2450 2442 CFG=0
M  V30 2326 1 2451 2445 CFG=0
M  V30 2327 1 2452 2445 CFG=0
M  V30 2328 1 2453 2454 CFG=0
M  V30 2329 1 2454 2455 CFG=0
M  V30 2330 2 2455 2456 CFG=0
M  V30 2331 1 2454 2457 CFG=0
M  V30 2332 1 2457 2458 CFG=0
M  V30 2333 1 2457 2459 CFG=0
M  V30 2334 1 2453 2460 CFG=0
M  V30 2335 1 2461 2454 CFG=0
M  V30 2336 1 2462 2457 CFG=0
M  V30 2337 1 2463 2458 CFG=0
M  V30 2338 1 2464 2458 CFG=0
M  V30 2339 1 2465 2458 CFG=0
M  V30 2340 1 2466 2459 CFG=0
M  V30 2341 1 2467 2459 CFG=0
M  V30 2342 1 2468 2459 CFG=0
M  V30 2343 1 2469 2470 CFG=0
M  V30 2344 1 2470 2471 CFG=0
M  V30 2345 2 2471 2472 CFG=0
M  V30 2346 1 2470 2473 CFG=0
M  V30 2347 1 2473 2474 CFG=0
M  V30 2348 1 2474 2475 CFG=0
M  V30 2349 1 2475 2476 CFG=0
M  V30 2350 1 2476 2477 CFG=0
M  V30 2351 4 2477 2478 CFG=0
M  V30 2352 4 2477 2479 CFG=0
M  V30 2353 1 2469 2480 CFG=0
M  V30 2354 1 2481 2470 CFG=0
M  V30 2355 1 2482 2473 CFG=0
M  V30 2356 1 2483 2473 CFG=0
M  V30 2357 1 2484 2474 CFG=0
M  V30 2358 1 2485 2474 CFG=0
M  V30 2359 1 2486 2475 CFG=0
M  V30 2360 1 2487 2475 CFG=0
M  V30 2361 1 2488 2476 CFG=0
M  V30 2362 1 2489 2478 CFG=0
M  V30 2363 1 2490 2478 CFG=0
M  V30 2364 1 2491 2479 CFG=0
M  V30 2365 1 2492 2479 CFG=0
M  V30 2366 1 2493 2494 CFG=0
M  V30 2367 1 2494 2495 CFG=0
M  V30 2368 2 2495 2496 CFG=0
M  V30 2369 1 2494 2497 CFG=0
M  V30 2370 1 2497 2498 CFG=0
M  V30 2371 1 2498 2499 CFG=0
M  V30 2372 4 2499 2500 CFG=0
M  V30 2373 4 2499 2501 CFG=0
M  V30 2374 1 2493 2502 CFG=0
M  V30 2375 1 2503 2494 CFG=0
M  V30 2376 1 2504 2497 CFG=0
M  V30 2377 1 2505 2497 CFG=0
M  V30 2378 1 2506 2498 CFG=0
M  V30 2379 1 2507 2498 CFG=0
M  V30 2380 1 2508 2509 CFG=0
M  V30 2381 1 2509 2510 CFG=0
M  V30 2382 2 2510 2511 CFG=0
M  V30 2383 1 2509 2512 CFG=0
M  V30 2384 1 2512 2513 CFG=0
M  V30 2385 1 2512 2514 CFG=0
M  V30 2386 1 2508 2515 CFG=0
M  V30 2387 1 2516 2509 CFG=0
M  V30 2388 1 2517 2512 CFG=0
M  V30 2389 1 2518 2513 CFG=0
M  V30 2390 1 2519 2514 CFG=0
M  V30 2391 1 2520 2514 CFG=0
M  V30 2392 1 2521 2514 CFG=0
M  V30 2393 1 2522 2523 CFG=0
M  V30 2394 1 2523 2524 CFG=0
M  V30 2395 2 2524 2525 CFG=0
M  V30 2396 1 2523 2526 CFG=0
M  V30 2397 1 2526 2527 CFG=0
M  V30 2398 1 2527 2528 CFG=0
M  V30 2399 1 2528 2529 CFG=0
M  V30 2400 1 2522 2530 CFG=0
M  V30 2401 1 2531 2523 CFG=0
M  V30 2402 1 2532 2526 CFG=0
M  V30 2403 1 2533 2526 CFG=0
M  V30 2404 1 2534 2527 CFG=0
M  V30 2405 1 2535 2527 CFG=0
M  V30 2406 1 2536 2529 CFG=0
M  V30 2407 1 2537 2529 CFG=0
M  V30 2408 1 2538 2529 CFG=0
M  V30 2409 1 2539 2540 CFG=0
M  V30 2410 1 2540 2541 CFG=0
M  V30 2411 2 2541 2542 CFG=0
M  V30 2412 1 2540 2543 CFG=0
M  V30 2413 1 2543 2544 CFG=0
M  V30 2414 1 2543 2545 CFG=0
M  V30 2415 1 2539 2546 CFG=0
M  V30 2416 1 2547 2540 CFG=0
M  V30 2417 1 2548 2543 CFG=0
M  V30 2418 1 2549 2544 CFG=0
M  V30 2419 1 2550 2545 CFG=0
M  V30 2420 1 2551 2545 CFG=0
M  V30 2421 1 2552 2545 CFG=0
M  V30 2422 1 2553 2554 CFG=0
M  V30 2423 1 2554 2555 CFG=0
M  V30 2424 2 2555 2556 CFG=0
M  V30 2425 1 2554 2557 CFG=0
M  V30 2426 1 2557 2558 CFG=0
M  V30 2427 1 2558 2559 CFG=0
M  V30 2428 2 2558 2560 CFG=0
M  V30 2429 1 2559 2561 CFG=0
M  V30 2430 1 2560 2562 CFG=0
M  V30 2431 2 2561 2562 CFG=0
M  V30 2432 1 2553 2563 CFG=0
M  V30 2433 1 2564 2554 CFG=0
M  V30 2434 1 2565 2557 CFG=0
M  V30 2435 1 2566 2557 CFG=0
M  V30 2436 1 2567 2559 CFG=0
M  V30 2437 1 2568 2560 CFG=0
M  V30 2438 1 2569 2561 CFG=0
M  V30 2439 1 2570 2562 CFG=0
M  V30 2440 1 2571 2572 CFG=0
M  V30 2441 1 2572 2573 CFG=0
M  V30 2442 2 2573 2574 CFG=0
M  V30 2443 1 2572 2575 CFG=0
M  V30 2444 1 2575 2576 CFG=0
M  V30 2445 1 2576 2577 CFG=0
M  V30 2446 1 2576 2578 CFG=0
M  V30 2447 1 2571 2579 CFG=0
M  V30 2448 1 2580 2572 CFG=0
M  V30 2449 1 2581 2575 CFG=0
M  V30 2450 1 2582 2575 CFG=0
M  V30 2451 1 2583 2576 CFG=0
M  V30 2452 1 2584 2577 CFG=0
M  V30 2453 1 2585 2577 CFG=0
M  V30 2454 1 2586 2577 CFG=0
M  V30 2455 1 2587 2578 CFG=0
M  V30 2456 1 2588 2578 CFG=0
M  V30 2457 1 2589 2578 CFG=0
M  V30 2458 1 2590 2591 CFG=0
M  V30 2459 1 2591 2592 CFG=0
M  V30 2460 2 2592 2593 CFG=0
M  V30 2461 1 2591 2594 CFG=0
M  V30 2462 1 2594 2595 CFG=0
M  V30 2463 1 2595 2596 CFG=0
M  V30 2464 1 2595 2597 CFG=0
M  V30 2465 1 2590 2598 CFG=0
M  V30 2466 1 2599 2591 CFG=0
M  V30 2467 1 2600 2594 CFG=0
M  V30 2468 1 2601 2594 CFG=0
M  V30 2469 1 2602 2595 CFG=0
M  V30 2470 1 2603 2596 CFG=0
M  V30 2471 1 2604 2596 CFG=0
M  V30 2472 1 2605 2596 CFG=0
M  V30 2473 1 2606 2597 CFG=0
M  V30 2474 1 2607 2597 CFG=0
M  V30 2475 1 2608 2597 CFG=0
M  V30 2476 1 2609 2610 CFG=0
M  V30 2477 1 2610 2611 CFG=0
M  V30 2478 2 2611 2612 CFG=0
M  V30 2479 1 2610 2613 CFG=0
M  V30 2480 1 2613 2614 CFG=0
M  V30 2481 1 2614 2615 CFG=0
M  V30 2482 2 2615 2616 CFG=0
M  V30 2483 1 2615 2617 CFG=0
M  V30 2484 1 2609 2618 CFG=0
M  V30 2485 1 2619 2610 CFG=0
M  V30 2486 1 2620 2613 CFG=0
M  V30 2487 1 2621 2613 CFG=0
M  V30 2488 1 2622 2614 CFG=0
M  V30 2489 1 2623 2614 CFG=0
M  V30 2490 1 2624 2617 CFG=0
M  V30 2491 1 2625 2617 CFG=0
M  V30 2492 1 2626 2627 CFG=0
M  V30 2493 1 2627 2628 CFG=0
M  V30 2494 2 2628 2629 CFG=0
M  V30 2495 1 2627 2630 CFG=0
M  V30 2496 1 2630 2631 CFG=0
M  V30 2497 1 2631 2632 CFG=0
M  V30 2498 2 2631 2633 CFG=0
M  V30 2499 1 2632 2634 CFG=0
M  V30 2500 1 2633 2635 CFG=0
M  V30 2501 2 2634 2635 CFG=0
M  V30 2502 1 2626 2636 CFG=0
M  V30 2503 1 2637 2627 CFG=0
M  V30 2504 1 2638 2630 CFG=0
M  V30 2505 1 2639 2630 CFG=0
M  V30 2506 1 2640 2632 CFG=0
M  V30 2507 1 2641 2633 CFG=0
M  V30 2508 1 2642 2634 CFG=0
M  V30 2509 1 2643 2635 CFG=0
M  V30 2510 1 2644 2645 CFG=0
M  V30 2511 1 2645 2646 CFG=0
M  V30 2512 2 2646 2647 CFG=0
M  V30 2513 1 2645 2648 CFG=0
M  V30 2514 1 2644 2649 CFG=0
M  V30 2515 1 2650 2645 CFG=0
M  V30 2516 1 2651 2648 CFG=0
M  V30 2517 1 2652 2648 CFG=0
M  V30 2518 1 2653 2648 CFG=0
M  V30 2519 1 2654 2655 CFG=0
M  V30 2520 1 2655 2656 CFG=0
M  V30 2521 2 2656 2657 CFG=0
M  V30 2522 1 2655 2658 CFG=0
M  V30 2523 1 2658 2659 CFG=0
M  V30 2524 2 2659 2660 CFG=0
M  V30 2525 1 2659 2661 CFG=0
M  V30 2526 1 2654 2662 CFG=0
M  V30 2527 1 2663 2655 CFG=0
M  V30 2528 1 2664 2658 CFG=0
M  V30 2529 1 2665 2658 CFG=0
M  V30 2530 1 2666 2661 CFG=0
M  V30 2531 1 2667 2661 CFG=0
M  V30 2532 1 2668 2669 CFG=0
M  V30 2533 1 2669 2670 CFG=0
M  V30 2534 2 2670 2671 CFG=0
M  V30 2535 1 2669 2672 CFG=0
M  V30 2536 1 2672 2673 CFG=0
M  V30 2537 1 2673 2674 CFG=0
M  V30 2538 1 2673 2675 CFG=0
M  V30 2539 1 2668 2676 CFG=0
M  V30 2540 1 2677 2669 CFG=0
M  V30 2541 1 2678 2672 CFG=0
M  V30 2542 1 2679 2672 CFG=0
M  V30 2543 1 2680 2673 CFG=0
M  V30 2544 1 2681 2674 CFG=0
M  V30 2545 1 2682 2674 CFG=0
M  V30 2546 1 2683 2674 CFG=0
M  V30 2547 1 2684 2675 CFG=0
M  V30 2548 1 2685 2675 CFG=0
M  V30 2549 1 2686 2675 CFG=0
M  V30 2550 1 2687 2688 CFG=0
M  V30 2551 1 2688 2689 CFG=0
M  V30 2552 2 2689 2690 CFG=0
M  V30 2553 1 2688 2691 CFG=0
M  V30 2554 1 2691 2692 CFG=0
M  V30 2555 1 2692 2693 CFG=0
M  V30 2556 4 2693 2694 CFG=0
M  V30 2557 4 2693 2695 CFG=0
M  V30 2558 1 2687 2696 CFG=0
M  V30 2559 1 2697 2688 CFG=0
M  V30 2560 1 2698 2691 CFG=0
M  V30 2561 1 2699 2691 CFG=0
M  V30 2562 1 2700 2692 CFG=0
M  V30 2563 1 2701 2692 CFG=0
M  V30 2564 1 2702 2703 CFG=0
M  V30 2565 1 2703 2704 CFG=0
M  V30 2566 2 2704 2705 CFG=0
M  V30 2567 1 2703 2706 CFG=0
M  V30 2568 1 2706 2707 CFG=0
M  V30 2569 1 2702 2708 CFG=0
M  V30 2570 1 2709 2703 CFG=0
M  V30 2571 1 2710 2706 CFG=0
M  V30 2572 1 2711 2706 CFG=0
M  V30 2573 1 2712 2707 CFG=0
M  V30 2574 1 2713 2714 CFG=0
M  V30 2575 1 2714 2715 CFG=0
M  V30 2576 2 2715 2716 CFG=0
M  V30 2577 1 2714 2717 CFG=0
M  V30 2578 1 2713 2718 CFG=0
M  V30 2579 1 2719 2714 CFG=0
M  V30 2580 1 2720 2717 CFG=0
M  V30 2581 1 2721 2717 CFG=0
M  V30 2582 1 2722 2717 CFG=0
M  V30 2583 1 2723 2724 CFG=0
M  V30 2584 1 2724 2725 CFG=0
M  V30 2585 2 2725 2726 CFG=0
M  V30 2586 1 2724 2727 CFG=0
M  V30 2587 1 2727 2728 CFG=0
M  V30 2588 1 2728 2729 CFG=0
M  V30 2589 1 2729 2730 CFG=0
M  V30 2590 1 2730 2731 CFG=0
M  V30 2591 1 2723 2732 CFG=0
M  V30 2592 1 2733 2724 CFG=0
M  V30 2593 1 2734 2727 CFG=0
M  V30 2594 1 2735 2727 CFG=0
M  V30 2595 1 2736 2728 CFG=0
M  V30 2596 1 2737 2728 CFG=0
M  V30 2597 1 2738 2729 CFG=0
M  V30 2598 1 2739 2729 CFG=0
M  V30 2599 1 2740 2730 CFG=0
M  V30 2600 1 2741 2730 CFG=0
M  V30 2601 1 2742 2731 CFG=0
M  V30 2602 1 2743 2731 CFG=0
M  V30 2603 1 2744 2731 CFG=0
M  V30 2604 1 2745 2746 CFG=0
M  V30 2605 1 2746 2747 CFG=0
M  V30 2606 2 2747 2748 CFG=0
M  V30 2607 1 2746 2749 CFG=0
M  V30 2608 1 2749 2750 CFG=0
M  V30 2609 1 2750 2751 CFG=0
M  V30 2610 1 2751 2752 CFG=0
M  V30 2611 1 2752 2753 CFG=0
M  V30 2612 4 2753 2754 CFG=0
M  V30 2613 4 2753 2755 CFG=0
M  V30 2614 1 2745 2756 CFG=0
M  V30 2615 1 2757 2746 CFG=0
M  V30 2616 1 2758 2749 CFG=0
M  V30 2617 1 2759 2749 CFG=0
M  V30 2618 1 2760 2750 CFG=0
M  V30 2619 1 2761 2750 CFG=0
M  V30 2620 1 2762 2751 CFG=0
M  V30 2621 1 2763 2751 CFG=0
M  V30 2622 1 2764 2752 CFG=0
M  V30 2623 1 2765 2754 CFG=0
M  V30 2624 1 2766 2754 CFG=0
M  V30 2625 1 2767 2755 CFG=0
M  V30 2626 1 2768 2755 CFG=0
M  V30 2627 1 2769 2770 CFG=0
M  V30 2628 1 2770 2771 CFG=0
M  V30 2629 2 2771 2772 CFG=0
M  V30 2630 1 2770 2773 CFG=0
M  V30 2631 1 2773 2774 CFG=0
M  V30 2632 1 2773 2775 CFG=0
M  V30 2633 1 2769 2776 CFG=0
M  V30 2634 1 2777 2770 CFG=0
M  V30 2635 1 2778 2773 CFG=0
M  V30 2636 1 2779 2774 CFG=0
M  V30 2637 1 2780 2774 CFG=0
M  V30 2638 1 2781 2774 CFG=0
M  V30 2639 1 2782 2775 CFG=0
M  V30 2640 1 2783 2775 CFG=0
M  V30 2641 1 2784 2775 CFG=0
M  V30 2642 1 2785 2786 CFG=0
M  V30 2643 1 2786 2787 CFG=0
M  V30 2644 2 2787 2788 CFG=0
M  V30 2645 1 2786 2789 CFG=0
M  V30 2646 1 2789 2790 CFG=0
M  V30 2647 1 2790 2791 CFG=0
M  V30 2648 1 2790 2792 CFG=0
M  V30 2649 1 2785 2793 CFG=0
M  V30 2650 1 2794 2786 CFG=0
M  V30 2651 1 2795 2789 CFG=0
M  V30 2652 1 2796 2789 CFG=0
M  V30 2653 1 2797 2790 CFG=0
M  V30 2654 1 2798 2791 CFG=0
M  V30 2655 1 2799 2791 CFG=0
M  V30 2656 1 2800 2791 CFG=0
M  V30 2657 1 2801 2792 CFG=0
M  V30 2658 1 2802 2792 CFG=0
M  V30 2659 1 2803 2792 CFG=0
M  V30 2660 1 2804 2805 CFG=0
M  V30 2661 1 2805 2806 CFG=0
M  V30 2662 2 2806 2807 CFG=0
M  V30 2663 1 2805 2808 CFG=0
M  V30 2664 1 2808 2809 CFG=0
M  V30 2665 2 2809 2810 CFG=0
M  V30 2666 1 2809 2811 CFG=0
M  V30 2667 1 2804 2812 CFG=0
M  V30 2668 1 2813 2805 CFG=0
M  V30 2669 1 2814 2808 CFG=0
M  V30 2670 1 2815 2808 CFG=0
M  V30 2671 1 2816 2811 CFG=0
M  V30 2672 1 2817 2811 CFG=0
M  V30 2673 1 2818 2819 CFG=0
M  V30 2674 1 2819 2820 CFG=0
M  V30 2675 2 2820 2821 CFG=0
M  V30 2676 1 2819 2822 CFG=0
M  V30 2677 1 2822 2823 CFG=0
M  V30 2678 1 2822 2824 CFG=0
M  V30 2679 1 2818 2825 CFG=0
M  V30 2680 1 2826 2819 CFG=0
M  V30 2681 1 2827 2822 CFG=0
M  V30 2682 1 2828 2823 CFG=0
M  V30 2683 1 2829 2823 CFG=0
M  V30 2684 1 2830 2823 CFG=0
M  V30 2685 1 2831 2824 CFG=0
M  V30 2686 1 2832 2824 CFG=0
M  V30 2687 1 2833 2824 CFG=0
M  V30 2688 1 2834 2835 CFG=0
M  V30 2689 1 2835 2836 CFG=0
M  V30 2690 2 2836 2837 CFG=0
M  V30 2691 1 2835 2838 CFG=0
M  V30 2692 1 2838 2839 CFG=0
M  V30 2693 1 2838 2840 CFG=0
M  V30 2694 1 2834 2841 CFG=0
M  V30 2695 1 2842 2835 CFG=0
M  V30 2696 1 2843 2838 CFG=0
M  V30 2697 1 2844 2839 CFG=0
M  V30 2698 1 2845 2839 CFG=0
M  V30 2699 1 2846 2839 CFG=0
M  V30 2700 1 2847 2840 CFG=0
M  V30 2701 1 2848 2840 CFG=0
M  V30 2702 1 2849 2840 CFG=0
M  V30 2703 1 2850 2851 CFG=0
M  V30 2704 1 2851 2852 CFG=0
M  V30 2705 2 2852 2853 CFG=0
M  V30 2706 1 2851 2854 CFG=0
M  V30 2707 1 2854 2855 CFG=0
M  V30 2708 1 2850 2856 CFG=0
M  V30 2709 1 2857 2851 CFG=0
M  V30 2710 1 2858 2854 CFG=0
M  V30 2711 1 2859 2854 CFG=0
M  V30 2712 1 2855 2860 CFG=0
M  V30 2713 1 2861 2862 CFG=0
M  V30 2714 1 2862 2863 CFG=0
M  V30 2715 2 2863 2864 CFG=0
M  V30 2716 1 2862 2865 CFG=0
M  V30 2717 1 2865 2866 CFG=0
M  V30 2718 1 2866 2867 CFG=0
M  V30 2719 1 2867 2868 CFG=0
M  V30 2720 1 2868 2869 CFG=0
M  V30 2721 1 2861 2870 CFG=0
M  V30 2722 1 2871 2862 CFG=0
M  V30 2723 1 2872 2865 CFG=0
M  V30 2724 1 2873 2865 CFG=0
M  V30 2725 1 2874 2866 CFG=0
M  V30 2726 1 2875 2866 CFG=0
M  V30 2727 1 2876 2867 CFG=0
M  V30 2728 1 2877 2867 CFG=0
M  V30 2729 1 2878 2868 CFG=0
M  V30 2730 1 2879 2868 CFG=0
M  V30 2731 1 2880 2869 CFG=0
M  V30 2732 1 2881 2869 CFG=0
M  V30 2733 1 2882 2869 CFG=0
M  V30 2734 1 2883 2884 CFG=0
M  V30 2735 1 2884 2885 CFG=0
M  V30 2736 2 2885 2886 CFG=0
M  V30 2737 1 2884 2887 CFG=0
M  V30 2738 1 2887 2888 CFG=0
M  V30 2739 1 2888 2889 CFG=0
M  V30 2740 2 2888 2890 CFG=0
M  V30 2741 1 2889 2891 CFG=0
M  V30 2742 1 2890 2892 CFG=0
M  V30 2743 2 2891 2892 CFG=0
M  V30 2744 1 2883 2893 CFG=0
M  V30 2745 1 2894 2884 CFG=0
M  V30 2746 1 2895 2887 CFG=0
M  V30 2747 1 2896 2887 CFG=0
M  V30 2748 1 2897 2889 CFG=0
M  V30 2749 1 2898 2890 CFG=0
M  V30 2750 1 2899 2891 CFG=0
M  V30 2751 1 2900 2892 CFG=0
M  V30 2752 1 2901 2902 CFG=0
M  V30 2753 1 2902 2903 CFG=0
M  V30 2754 2 2903 2904 CFG=0
M  V30 2755 1 2902 2905 CFG=0
M  V30 2756 1 2905 2906 CFG=0
M  V30 2757 1 2901 2907 CFG=0
M  V30 2758 1 2908 2902 CFG=0
M  V30 2759 1 2909 2905 CFG=0
M  V30 2760 1 2910 2905 CFG=0
M  V30 2761 1 2911 2906 CFG=0
M  V30 2762 1 2912 2913 CFG=0
M  V30 2763 1 2913 2914 CFG=0
M  V30 2764 2 2914 2915 CFG=0
M  V30 2765 1 2912 2916 CFG=0
M  V30 2766 1 2917 2913 CFG=0
M  V30 2767 1 2918 2913 CFG=0
M  V30 2768 1 2919 2920 CFG=0
M  V30 2769 1 2920 2921 CFG=0
M  V30 2770 2 2921 2922 CFG=0
M  V30 2771 1 2920 2923 CFG=0
M  V30 2772 1 2923 2924 CFG=0
M  V30 2773 1 2924 2925 CFG=0
M  V30 2774 2 2925 2926 CFG=0
M  V30 2775 1 2925 2927 CFG=0
M  V30 2776 1 2919 2928 CFG=0
M  V30 2777 1 2929 2920 CFG=0
M  V30 2778 1 2930 2923 CFG=0
M  V30 2779 1 2931 2923 CFG=0
M  V30 2780 1 2932 2924 CFG=0
M  V30 2781 1 2933 2924 CFG=0
M  V30 2782 1 2934 2927 CFG=0
M  V30 2783 1 2935 2927 CFG=0
M  V30 2784 1 2936 2937 CFG=0
M  V30 2785 1 2937 2938 CFG=0
M  V30 2786 2 2938 2939 CFG=0
M  V30 2787 1 2937 2940 CFG=0
M  V30 2788 1 2940 2941 CFG=0
M  V30 2789 1 2941 2942 CFG=0
M  V30 2790 1 2942 2943 CFG=0
M  V30 2791 1 2943 2944 CFG=0
M  V30 2792 1 2936 2945 CFG=0
M  V30 2793 1 2946 2937 CFG=0
M  V30 2794 1 2947 2940 CFG=0
M  V30 2795 1 2948 2940 CFG=0
M  V30 2796 1 2949 2941 CFG=0
M  V30 2797 1 2950 2941 CFG=0
M  V30 2798 1 2951 2942 CFG=0
M  V30 2799 1 2952 2942 CFG=0
M  V30 2800 1 2953 2943 CFG=0
M  V30 2801 1 2954 2943 CFG=0
M  V30 2802 1 2955 2944 CFG=0
M  V30 2803 1 2956 2944 CFG=0
M  V30 2804 1 2957 2944 CFG=0
M  V30 2805 1 2958 2959 CFG=0
M  V30 2806 1 2959 2960 CFG=0
M  V30 2807 2 2960 2961 CFG=0
M  V30 2808 1 2959 2962 CFG=0
M  V30 2809 1 2962 2963 CFG=0
M  V30 2810 1 2962 2964 CFG=0
M  V30 2811 1 2958 2965 CFG=0
M  V30 2812 1 2966 2959 CFG=0
M  V30 2813 1 2967 2962 CFG=0
M  V30 2814 1 2968 2963 CFG=0
M  V30 2815 1 2969 2964 CFG=0
M  V30 2816 1 2970 2964 CFG=0
M  V30 2817 1 2971 2964 CFG=0
M  V30 2818 1 2972 2973 CFG=0
M  V30 2819 1 2973 2974 CFG=0
M  V30 2820 2 2974 2975 CFG=0
M  V30 2821 1 2973 2976 CFG=0
M  V30 2822 1 2976 2977 CFG=0
M  V30 2823 1 2976 2978 CFG=0
M  V30 2824 1 2972 2979 CFG=0
M  V30 2825 1 2980 2973 CFG=0
M  V30 2826 1 2981 2976 CFG=0
M  V30 2827 1 2982 2977 CFG=0
M  V30 2828 1 2983 2978 CFG=0
M  V30 2829 1 2984 2978 CFG=0
M  V30 2830 1 2985 2978 CFG=0
M  V30 2831 1 2986 2987 CFG=0
M  V30 2832 1 2987 2988 CFG=0
M  V30 2833 2 2988 2989 CFG=0
M  V30 2834 1 2987 2990 CFG=0
M  V30 2835 1 2990 2991 CFG=0
M  V30 2836 1 2990 2992 CFG=0
M  V30 2837 1 2986 2993 CFG=0
M  V30 2838 1 2994 2987 CFG=0
M  V30 2839 1 2995 2990 CFG=0
M  V30 2840 1 2996 2991 CFG=0
M  V30 2841 1 2997 2992 CFG=0
M  V30 2842 1 2998 2992 CFG=0
M  V30 2843 1 2999 2992 CFG=0
M  V30 2844 1 3000 3001 CFG=0
M  V30 2845 1 3001 3002 CFG=0
M  V30 2846 2 3002 3003 CFG=0
M  V30 2847 1 3001 3004 CFG=0
M  V30 2848 1 3004 3005 CFG=0
M  V30 2849 1 3005 3006 CFG=0
M  V30 2850 1 3005 3007 CFG=0
M  V30 2851 1 3000 3008 CFG=0
M  V30 2852 1 3009 3001 CFG=0
M  V30 2853 1 3010 3004 CFG=0
M  V30 2854 1 3011 3004 CFG=0
M  V30 2855 1 3012 3005 CFG=0
M  V30 2856 1 3013 3006 CFG=0
M  V30 2857 1 3014 3006 CFG=0
M  V30 2858 1 3015 3006 CFG=0
M  V30 2859 1 3016 3007 CFG=0
M  V30 2860 1 3017 3007 CFG=0
M  V30 2861 1 3018 3007 CFG=0
M  V30 2862 1 3019 3020 CFG=0
M  V30 2863 1 3020 3021 CFG=0
M  V30 2864 2 3021 3022 CFG=0
M  V30 2865 1 3020 3023 CFG=0
M  V30 2866 1 3023 3024 CFG=0
M  V30 2867 1 3023 3025 CFG=0
M  V30 2868 1 3019 3026 CFG=0
M  V30 2869 1 3027 3020 CFG=0
M  V30 2870 1 3028 3023 CFG=0
M  V30 2871 1 3029 3024 CFG=0
M  V30 2872 1 3030 3025 CFG=0
M  V30 2873 1 3031 3025 CFG=0
M  V30 2874 1 3032 3025 CFG=0
M  V30 2875 1 3033 3034 CFG=0
M  V30 2876 1 3034 3035 CFG=0
M  V30 2877 2 3035 3036 CFG=0
M  V30 2878 1 3033 3037 CFG=0
M  V30 2879 1 3038 3034 CFG=0
M  V30 2880 1 3039 3034 CFG=0
M  V30 2881 1 3040 3041 CFG=0
M  V30 2882 1 3041 3042 CFG=0
M  V30 2883 2 3042 3043 CFG=0
M  V30 2884 1 3041 3044 CFG=0
M  V30 2885 1 3044 3045 CFG=0
M  V30 2886 1 3044 3046 CFG=0
M  V30 2887 1 3040 3047 CFG=0
M  V30 2888 1 3048 3041 CFG=0
M  V30 2889 1 3049 3044 CFG=0
M  V30 2890 1 3050 3045 CFG=0
M  V30 2891 1 3051 3045 CFG=0
M  V30 2892 1 3052 3045 CFG=0
M  V30 2893 1 3053 3046 CFG=0
M  V30 2894 1 3054 3046 CFG=0
M  V30 2895 1 3055 3046 CFG=0
M  V30 2896 1 3056 3057 CFG=0
M  V30 2897 1 3057 3058 CFG=0
M  V30 2898 2 3058 3059 CFG=0
M  V30 2899 1 3057 3060 CFG=0
M  V30 2900 1 3060 3061 CFG=0
M  V30 2901 1 3061 3062 CFG=0
M  V30 2902 4 3062 3063 CFG=0
M  V30 2903 4 3062 3064 CFG=0
M  V30 2904 1 3056 3065 CFG=0
M  V30 2905 1 3066 3057 CFG=0
M  V30 2906 1 3067 3060 CFG=0
M  V30 2907 1 3068 3060 CFG=0
M  V30 2908 1 3069 3061 CFG=0
M  V30 2909 1 3070 3061 CFG=0
M  V30 2910 1 3071 3072 CFG=0
M  V30 2911 1 3072 3073 CFG=0
M  V30 2912 2 3073 3074 CFG=0
M  V30 2913 1 3072 3075 CFG=0
M  V30 2914 1 3071 3076 CFG=0
M  V30 2915 1 3077 3072 CFG=0
M  V30 2916 1 3078 3075 CFG=0
M  V30 2917 1 3079 3075 CFG=0
M  V30 2918 1 3080 3075 CFG=0
M  V30 2919 1 3081 3082 CFG=0
M  V30 2920 1 3082 3083 CFG=0
M  V30 2921 2 3083 3084 CFG=0
M  V30 2922 1 3082 3085 CFG=0
M  V30 2923 1 3085 3086 CFG=0
M  V30 2924 1 3085 3087 CFG=0
M  V30 2925 1 3081 3088 CFG=0
M  V30 2926 1 3089 3082 CFG=0
M  V30 2927 1 3090 3085 CFG=0
M  V30 2928 1 3091 3086 CFG=0
M  V30 2929 1 3092 3086 CFG=0
M  V30 2930 1 3093 3086 CFG=0
M  V30 2931 1 3094 3087 CFG=0
M  V30 2932 1 3095 3087 CFG=0
M  V30 2933 1 3096 3087 CFG=0
M  V30 2934 1 3097 3098 CFG=0
M  V30 2935 1 3098 3099 CFG=0
M  V30 2936 2 3099 3100 CFG=0
M  V30 2937 1 3098 3101 CFG=0
M  V30 2938 1 3101 3102 CFG=0
M  V30 2939 1 3102 3103 CFG=0
M  V30 2940 1 3103 3104 CFG=0
M  V30 2941 1 3097 3105 CFG=0
M  V30 2942 1 3106 3098 CFG=0
M  V30 2943 1 3107 3101 CFG=0
M  V30 2944 1 3108 3101 CFG=0
M  V30 2945 1 3109 3102 CFG=0
M  V30 2946 1 3110 3102 CFG=0
M  V30 2947 1 3111 3104 CFG=0
M  V30 2948 1 3112 3104 CFG=0
M  V30 2949 1 3113 3104 CFG=0
M  V30 2950 1 3114 3115 CFG=0
M  V30 2951 1 3115 3116 CFG=0
M  V30 2952 2 3116 3117 CFG=0
M  V30 2953 1 3115 3118 CFG=0
M  V30 2954 1 3118 3119 CFG=0
M  V30 2955 4 3119 3120 CFG=0
M  V30 2956 4 3119 3121 CFG=0
M  V30 2957 4 3120 3122 CFG=0
M  V30 2958 4 3121 3123 CFG=0
M  V30 2959 4 3122 3124 CFG=0
M  V30 2960 4 3123 3124 CFG=0
M  V30 2961 1 3124 3125 CFG=0
M  V30 2962 1 3114 3126 CFG=0
M  V30 2963 1 3127 3115 CFG=0
M  V30 2964 1 3128 3118 CFG=0
M  V30 2965 1 3129 3118 CFG=0
M  V30 2966 1 3130 3120 CFG=0
M  V30 2967 1 3131 3121 CFG=0
M  V30 2968 1 3132 3122 CFG=0
M  V30 2969 1 3133 3123 CFG=0
M  V30 2970 1 3134 3125 CFG=0
M  V30 2971 1 3135 3136 CFG=0
M  V30 2972 1 3136 3137 CFG=0
M  V30 2973 2 3137 3138 CFG=0
M  V30 2974 1 3136 3139 CFG=0
M  V30 2975 1 3139 3140 CFG=0
M  V30 2976 1 3140 3141 CFG=0
M  V30 2977 1 3141 3142 CFG=0
M  V30 2978 1 3135 3143 CFG=0
M  V30 2979 1 3144 3136 CFG=0
M  V30 2980 1 3145 3139 CFG=0
M  V30 2981 1 3146 3139 CFG=0
M  V30 2982 1 3147 3140 CFG=0
M  V30 2983 1 3148 3140 CFG=0
M  V30 2984 1 3149 3142 CFG=0
M  V30 2985 1 3150 3142 CFG=0
M  V30 2986 1 3151 3142 CFG=0
M  V30 2987 1 3152 3153 CFG=0
M  V30 2988 1 3153 3154 CFG=0
M  V30 2989 2 3154 3155 CFG=0
M  V30 2990 1 3152 3156 CFG=0
M  V30 2991 1 3157 3153 CFG=0
M  V30 2992 1 3158 3153 CFG=0
M  V30 2993 1 3159 3160 CFG=0
M  V30 2994 1 3160 3161 CFG=0
M  V30 2995 2 3161 3162 CFG=0
M  V30 2996 1 3160 3163 CFG=0
M  V30 2997 1 3163 3164 CFG=0
M  V30 2998 1 3163 3165 CFG=0
M  V30 2999 1 3159 3166 CFG=0
M  V30 3000 1 3167 3160 CFG=0
M  V30 3001 1 3168 3163 CFG=0
M  V30 3002 1 3169 3164 CFG=0
M  V30 3003 1 3170 3165 CFG=0
M  V30 3004 1 3171 3165 CFG=0
M  V30 3005 1 3172 3165 CFG=0
M  V30 3006 1 3173 3174 CFG=0
M  V30 3007 1 3174 3175 CFG=0
M  V30 3008 2 3175 3176 CFG=0
M  V30 3009 1 3174 3177 CFG=0
M  V30 3010 1 3177 3178 CFG=0
M  V30 3011 1 3178 3179 CFG=0
M  V30 3012 1 3178 3180 CFG=0
M  V30 3013 1 3173 3181 CFG=0
M  V30 3014 1 3182 3174 CFG=0
M  V30 3015 1 3183 3177 CFG=0
M  V30 3016 1 3184 3177 CFG=0
M  V30 3017 1 3185 3178 CFG=0
M  V30 3018 1 3186 3179 CFG=0
M  V30 3019 1 3187 3179 CFG=0
M  V30 3020 1 3188 3179 CFG=0
M  V30 3021 1 3189 3180 CFG=0
M  V30 3022 1 3190 3180 CFG=0
M  V30 3023 1 3191 3180 CFG=0
M  V30 3024 1 3192 3193 CFG=0
M  V30 3025 1 3193 3194 CFG=0
M  V30 3026 2 3194 3195 CFG=0
M  V30 3027 1 3193 3196 CFG=0
M  V30 3028 1 3196 3197 CFG=0
M  V30 3029 1 3192 3198 CFG=0
M  V30 3030 1 3199 3193 CFG=0
M  V30 3031 1 3200 3196 CFG=0
M  V30 3032 1 3201 3196 CFG=0
M  V30 3033 1 3202 3197 CFG=0
M  V30 3034 1 3203 3204 CFG=0
M  V30 3035 1 3204 3205 CFG=0
M  V30 3036 2 3205 3206 CFG=0
M  V30 3037 1 3204 3207 CFG=0
M  V30 3038 1 3207 3208 CFG=0
M  V30 3039 4 3208 3209 CFG=0
M  V30 3040 4 3208 3210 CFG=0
M  V30 3041 4 3209 3211 CFG=0
M  V30 3042 4 3210 3212 CFG=0
M  V30 3043 4 3211 3213 CFG=0
M  V30 3044 4 3212 3213 CFG=0
M  V30 3045 1 3213 3214 CFG=0
M  V30 3046 1 3203 3215 CFG=0
M  V30 3047 1 3216 3204 CFG=0
M  V30 3048 1 3217 3207 CFG=0
M  V30 3049 1 3218 3207 CFG=0
M  V30 3050 1 3219 3209 CFG=0
M  V30 3051 1 3220 3210 CFG=0
M  V30 3052 1 3221 3211 CFG=0
M  V30 3053 1 3222 3212 CFG=0
M  V30 3054 1 3223 3214 CFG=0
M  V30 3055 1 3224 3225 CFG=0
M  V30 3056 1 3225 3226 CFG=0
M  V30 3057 2 3226 3227 CFG=0
M  V30 3058 1 3225 3228 CFG=0
M  V30 3059 1 3228 3229 CFG=0
M  V30 3060 4 3229 3230 CFG=0
M  V30 3061 4 3229 3231 CFG=0
M  V30 3062 1 3224 3232 CFG=0
M  V30 3063 1 3233 3225 CFG=0
M  V30 3064 1 3234 3228 CFG=0
M  V30 3065 1 3235 3228 CFG=0
M  V30 3066 1 3236 3237 CFG=0
M  V30 3067 1 3237 3238 CFG=0
M  V30 3068 2 3238 3239 CFG=0
M  V30 3069 1 3237 3240 CFG=0
M  V30 3070 1 3240 3241 CFG=0
M  V30 3071 2 3241 3242 CFG=0
M  V30 3072 1 3241 3243 CFG=0
M  V30 3073 1 3236 3244 CFG=0
M  V30 3074 1 3245 3237 CFG=0
M  V30 3075 1 3246 3240 CFG=0
M  V30 3076 1 3247 3240 CFG=0
M  V30 3077 1 3248 3243 CFG=0
M  V30 3078 1 3249 3243 CFG=0
M  V30 3079 1 3250 3251 CFG=0
M  V30 3080 1 3251 3252 CFG=0
M  V30 3081 2 3252 3253 CFG=0
M  V30 3082 1 3251 3254 CFG=0
M  V30 3083 1 3254 3255 CFG=0
M  V30 3084 1 3255 3256 CFG=0
M  V30 3085 1 3255 3257 CFG=0
M  V30 3086 1 3250 3258 CFG=0
M  V30 3087 1 3259 3251 CFG=0
M  V30 3088 1 3260 3254 CFG=0
M  V30 3089 1 3261 3254 CFG=0
M  V30 3090 1 3262 3255 CFG=0
M  V30 3091 1 3263 3256 CFG=0
M  V30 3092 1 3264 3256 CFG=0
M  V30 3093 1 3265 3256 CFG=0
M  V30 3094 1 3266 3257 CFG=0
M  V30 3095 1 3267 3257 CFG=0
M  V30 3096 1 3268 3257 CFG=0
M  V30 3097 1 3269 3270 CFG=0
M  V30 3098 1 3270 3271 CFG=0
M  V30 3099 2 3271 3272 CFG=0
M  V30 3100 1 3270 3273 CFG=0
M  V30 3101 1 3273 3274 CFG=0
M  V30 3102 1 3274 3275 CFG=0
M  V30 3103 1 3275 3276 CFG=0
M  V30 3104 1 3276 3277 CFG=0
M  V30 3105 1 3269 3278 CFG=0
M  V30 3106 1 3279 3270 CFG=0
M  V30 3107 1 3280 3273 CFG=0
M  V30 3108 1 3281 3273 CFG=0
M  V30 3109 1 3282 3274 CFG=0
M  V30 3110 1 3283 3274 CFG=0
M  V30 3111 1 3284 3275 CFG=0
M  V30 3112 1 3285 3275 CFG=0
M  V30 3113 1 3286 3276 CFG=0
M  V30 3114 1 3287 3276 CFG=0
M  V30 3115 1 3288 3277 CFG=0
M  V30 3116 1 3289 3277 CFG=0
M  V30 3117 1 3290 3277 CFG=0
M  V30 3118 1 3291 3292 CFG=0
M  V30 3119 1 3292 3293 CFG=0
M  V30 3120 2 3293 3294 CFG=0
M  V30 3121 1 3292 3295 CFG=0
M  V30 3122 1 3295 3296 CFG=0
M  V30 3123 1 3295 3297 CFG=0
M  V30 3124 1 3291 3298 CFG=0
M  V30 3125 1 3299 3292 CFG=0
M  V30 3126 1 3300 3295 CFG=0
M  V30 3127 1 3301 3296 CFG=0
M  V30 3128 1 3302 3297 CFG=0
M  V30 3129 1 3303 3297 CFG=0
M  V30 3130 1 3304 3297 CFG=0
M  V30 3131 1 3305 3306 CFG=0
M  V30 3132 1 3306 3307 CFG=0
M  V30 3133 2 3307 3308 CFG=0
M  V30 3134 1 3305 3309 CFG=0
M  V30 3135 1 3310 3306 CFG=0
M  V30 3136 1 3311 3306 CFG=0
M  V30 3137 1 3312 3313 CFG=0
M  V30 3138 1 3313 3314 CFG=0
M  V30 3139 2 3314 3315 CFG=0
M  V30 3140 1 3313 3316 CFG=0
M  V30 3141 1 3316 3317 CFG=0
M  V30 3142 1 3316 3318 CFG=0
M  V30 3143 1 3312 3319 CFG=0
M  V30 3144 1 3320 3313 CFG=0
M  V30 3145 1 3321 3316 CFG=0
M  V30 3146 1 3322 3317 CFG=0
M  V30 3147 1 3323 3317 CFG=0
M  V30 3148 1 3324 3317 CFG=0
M  V30 3149 1 3325 3318 CFG=0
M  V30 3150 1 3326 3318 CFG=0
M  V30 3151 1 3327 3318 CFG=0
M  V30 3152 1 3328 3329 CFG=0
M  V30 3153 1 3329 3330 CFG=0
M  V30 3154 2 3330 3331 CFG=0
M  V30 3155 1 3329 3332 CFG=0
M  V30 3156 1 3332 3333 CFG=0
M  V30 3157 1 3328 3334 CFG=0
M  V30 3158 1 3335 3329 CFG=0
M  V30 3159 1 3336 3332 CFG=0
M  V30 3160 1 3337 3332 CFG=0
M  V30 3161 1 3338 3333 CFG=0
M  V30 3162 1 3339 3340 CFG=0
M  V30 3163 1 3340 3341 CFG=0
M  V30 3164 2 3341 3342 CFG=0
M  V30 3165 1 3340 3343 CFG=0
M  V30 3166 1 3343 3344 CFG=0
M  V30 3167 1 3343 3345 CFG=0
M  V30 3168 1 3344 3346 CFG=0
M  V30 3169 1 3339 3347 CFG=0
M  V30 3170 1 3348 3340 CFG=0
M  V30 3171 1 3349 3343 CFG=0
M  V30 3172 1 3350 3344 CFG=0
M  V30 3173 1 3351 3344 CFG=0
M  V30 3174 1 3352 3345 CFG=0
M  V30 3175 1 3353 3345 CFG=0
M  V30 3176 1 3354 3345 CFG=0
M  V30 3177 1 3355 3346 CFG=0
M  V30 3178 1 3356 3346 CFG=0
M  V30 3179 1 3357 3346 CFG=0
M  V30 3180 1 3358 3359 CFG=0
M  V30 3181 1 3359 3360 CFG=0
M  V30 3182 2 3360 3361 CFG=0
M  V30 3183 1 3359 3362 CFG=0
M  V30 3184 1 3362 3363 CFG=0
M  V30 3185 1 3363 3364 CFG=0
M  V30 3186 1 3364 3358 CFG=0
M  V30 3187 1 3365 3359 CFG=0
M  V30 3188 1 3366 3362 CFG=0
M  V30 3189 1 3367 3362 CFG=0
M  V30 3190 1 3368 3363 CFG=0
M  V30 3191 1 3369 3363 CFG=0
M  V30 3192 1 3370 3364 CFG=0
M  V30 3193 1 3371 3364 CFG=0
M  V30 3194 1 3372 3373 CFG=0
M  V30 3195 1 3373 3374 CFG=0
M  V30 3196 2 3374 3375 CFG=0
M  V30 3197 1 3373 3376 CFG=0
M  V30 3198 1 3376 3377 CFG=0
M  V30 3199 1 3372 3378 CFG=0
M  V30 3200 1 3379 3373 CFG=0
M  V30 3201 1 3380 3376 CFG=0
M  V30 3202 1 3381 3376 CFG=0
M  V30 3203 1 3382 3377 CFG=0
M  V30 3204 1 3383 3384 CFG=0
M  V30 3205 1 3384 3385 CFG=0
M  V30 3206 2 3385 3386 CFG=0
M  V30 3207 1 3384 3387 CFG=0
M  V30 3208 1 3387 3388 CFG=0
M  V30 3209 1 3387 3389 CFG=0
M  V30 3210 1 3383 3390 CFG=0
M  V30 3211 1 3391 3384 CFG=0
M  V30 3212 1 3392 3387 CFG=0
M  V30 3213 1 3393 3388 CFG=0
M  V30 3214 1 3394 3388 CFG=0
M  V30 3215 1 3395 3388 CFG=0
M  V30 3216 1 3396 3389 CFG=0
M  V30 3217 1 3397 3389 CFG=0
M  V30 3218 1 3398 3389 CFG=0
M  V30 3219 1 3399 3400 CFG=0
M  V30 3220 1 3400 3401 CFG=0
M  V30 3221 2 3401 3402 CFG=0
M  V30 3222 1 3400 3403 CFG=0
M  V30 3223 1 3403 3404 CFG=0
M  V30 3224 1 3399 3405 CFG=0
M  V30 3225 1 3406 3400 CFG=0
M  V30 3226 1 3407 3403 CFG=0
M  V30 3227 1 3408 3403 CFG=0
M  V30 3228 1 3409 3404 CFG=0
M  V30 3229 1 3410 3411 CFG=0
M  V30 3230 1 3411 3412 CFG=0
M  V30 3231 2 3412 3413 CFG=0
M  V30 3232 1 3410 3414 CFG=0
M  V30 3233 1 3415 3411 CFG=0
M  V30 3234 1 3416 3411 CFG=0
M  V30 3235 1 3417 3418 CFG=0
M  V30 3236 1 3418 3419 CFG=0
M  V30 3237 2 3419 3420 CFG=0
M  V30 3238 1 3418 3421 CFG=0
M  V30 3239 1 3421 3422 CFG=0
M  V30 3240 1 3422 3423 CFG=0
M  V30 3241 1 3423 3424 CFG=0
M  V30 3242 1 3424 3425 CFG=0
M  V30 3243 4 3425 3426 CFG=0
M  V30 3244 4 3425 3427 CFG=0
M  V30 3245 1 3417 3428 CFG=0
M  V30 3246 1 3429 3418 CFG=0
M  V30 3247 1 3430 3421 CFG=0
M  V30 3248 1 3431 3421 CFG=0
M  V30 3249 1 3432 3422 CFG=0
M  V30 3250 1 3433 3422 CFG=0
M  V30 3251 1 3434 3423 CFG=0
M  V30 3252 1 3435 3423 CFG=0
M  V30 3253 1 3436 3424 CFG=0
M  V30 3254 1 3437 3426 CFG=0
M  V30 3255 1 3438 3426 CFG=0
M  V30 3256 1 3439 3427 CFG=0
M  V30 3257 1 3440 3427 CFG=0
M  V30 3258 1 3441 3442 CFG=0
M  V30 3259 1 3442 3443 CFG=0
M  V30 3260 2 3443 3444 CFG=0
M  V30 3261 1 3442 3445 CFG=0
M  V30 3262 1 3445 3446 CFG=0
M  V30 3263 4 3446 3447 CFG=0
M  V30 3264 4 3446 3448 CFG=0
M  V30 3265 1 3441 3449 CFG=0
M  V30 3266 1 3450 3442 CFG=0
M  V30 3267 1 3451 3445 CFG=0
M  V30 3268 1 3452 3445 CFG=0
M  V30 3269 1 3453 3454 CFG=0
M  V30 3270 1 3454 3455 CFG=0
M  V30 3271 2 3455 3456 CFG=0
M  V30 3272 1 3454 3457 CFG=0
M  V30 3273 1 3453 3458 CFG=0
M  V30 3274 1 3459 3454 CFG=0
M  V30 3275 1 3460 3457 CFG=0
M  V30 3276 1 3461 3457 CFG=0
M  V30 3277 1 3462 3457 CFG=0
M  V30 3278 1 3463 3464 CFG=0
M  V30 3279 1 3464 3465 CFG=0
M  V30 3280 2 3465 3466 CFG=0
M  V30 3281 1 3464 3467 CFG=0
M  V30 3282 1 3467 3468 CFG=0
M  V30 3283 1 3467 3469 CFG=0
M  V30 3284 1 3463 3470 CFG=0
M  V30 3285 1 3471 3464 CFG=0
M  V30 3286 1 3472 3467 CFG=0
M  V30 3287 1 3473 3468 CFG=0
M  V30 3288 1 3474 3469 CFG=0
M  V30 3289 1 3475 3469 CFG=0
M  V30 3290 1 3476 3469 CFG=0
M  V30 3291 1 3477 3478 CFG=0
M  V30 3292 1 3478 3479 CFG=0
M  V30 3293 2 3479 3480 CFG=0
M  V30 3294 1 3478 3481 CFG=0
M  V30 3295 1 3481 3482 CFG=0
M  V30 3296 1 3482 3483 CFG=0
M  V30 3297 2 3483 3484 CFG=0
M  V30 3298 1 3483 3485 CFG=0
M  V30 3299 1 3477 3486 CFG=0
M  V30 3300 1 3487 3478 CFG=0
M  V30 3301 1 3488 3481 CFG=0
M  V30 3302 1 3489 3481 CFG=0
M  V30 3303 1 3490 3482 CFG=0
M  V30 3304 1 3491 3482 CFG=0
M  V30 3305 1 3492 3485 CFG=0
M  V30 3306 1 3493 3485 CFG=0
M  V30 3307 1 3494 3495 CFG=0
M  V30 3308 1 3495 3496 CFG=0
M  V30 3309 2 3496 3497 CFG=0
M  V30 3310 1 3495 3498 CFG=0
M  V30 3311 1 3498 3499 CFG=0
M  V30 3312 4 3499 3500 CFG=0
M  V30 3313 4 3499 3501 CFG=0
M  V30 3314 4 3500 3502 CFG=0
M  V30 3315 4 3501 3503 CFG=0
M  V30 3316 4 3502 3504 CFG=0
M  V30 3317 4 3503 3504 CFG=0
M  V30 3318 1 3504 3505 CFG=0
M  V30 3319 1 3494 3506 CFG=0
M  V30 3320 1 3507 3495 CFG=0
M  V30 3321 1 3508 3498 CFG=0
M  V30 3322 1 3509 3498 CFG=0
M  V30 3323 1 3510 3500 CFG=0
M  V30 3324 1 3511 3501 CFG=0
M  V30 3325 1 3512 3502 CFG=0
M  V30 3326 1 3513 3503 CFG=0
M  V30 3327 1 3514 3505 CFG=0
M  V30 3328 1 3515 3516 CFG=0
M  V30 3329 1 3516 3517 CFG=0
M  V30 3330 2 3517 3518 CFG=0
M  V30 3331 1 3516 3519 CFG=0
M  V30 3332 1 3519 3520 CFG=0
M  V30 3333 1 3520 3521 CFG=0
M  V30 3334 1 3520 3522 CFG=0
M  V30 3335 1 3515 3523 CFG=0
M  V30 3336 1 3524 3516 CFG=0
M  V30 3337 1 3525 3519 CFG=0
M  V30 3338 1 3526 3519 CFG=0
M  V30 3339 1 3527 3520 CFG=0
M  V30 3340 1 3528 3521 CFG=0
M  V30 3341 1 3529 3521 CFG=0
M  V30 3342 1 3530 3521 CFG=0
M  V30 3343 1 3531 3522 CFG=0
M  V30 3344 1 3532 3522 CFG=0
M  V30 3345 1 3533 3522 CFG=0
M  V30 3346 1 3534 3535 CFG=0
M  V30 3347 1 3535 3536 CFG=0
M  V30 3348 2 3536 3537 CFG=0
M  V30 3349 1 3535 3538 CFG=0
M  V30 3350 1 3538 3539 CFG=0
M  V30 3351 1 3538 3540 CFG=0
M  V30 3352 1 3534 3541 CFG=0
M  V30 3353 1 3542 3535 CFG=0
M  V30 3354 1 3543 3538 CFG=0
M  V30 3355 1 3544 3539 CFG=0
M  V30 3356 1 3545 3539 CFG=0
M  V30 3357 1 3546 3539 CFG=0
M  V30 3358 1 3547 3540 CFG=0
M  V30 3359 1 3548 3540 CFG=0
M  V30 3360 1 3549 3540 CFG=0
M  V30 3361 1 3550 3551 CFG=0
M  V30 3362 1 3551 3552 CFG=0
M  V30 3363 2 3552 3553 CFG=0
M  V30 3364 1 3551 3554 CFG=0
M  V30 3365 1 3554 3555 CFG=0
M  V30 3366 1 3555 3556 CFG=0
M  V30 3367 2 3556 3557 CFG=0
M  V30 3368 1 3556 3558 CFG=0
M  V30 3369 1 3550 3559 CFG=0
M  V30 3370 1 3560 3551 CFG=0
M  V30 3371 1 3561 3554 CFG=0
M  V30 3372 1 3562 3554 CFG=0
M  V30 3373 1 3563 3555 CFG=0
M  V30 3374 1 3564 3555 CFG=0
M  V30 3375 1 3565 3558 CFG=0
M  V30 3376 1 3566 3558 CFG=0
M  V30 3377 1 3567 3568 CFG=0
M  V30 3378 1 3568 3569 CFG=0
M  V30 3379 2 3569 3570 CFG=0
M  V30 3380 1 3568 3571 CFG=0
M  V30 3381 1 3571 3572 CFG=0
M  V30 3382 1 3572 3573 CFG=0
M  V30 3383 2 3573 3574 CFG=0
M  V30 3384 1 3573 3575 CFG=0
M  V30 3385 1 3567 3576 CFG=0
M  V30 3386 1 3577 3568 CFG=0
M  V30 3387 1 3578 3571 CFG=0
M  V30 3388 1 3579 3571 CFG=0
M  V30 3389 1 3580 3572 CFG=0
M  V30 3390 1 3581 3572 CFG=0
M  V30 3391 1 3582 3575 CFG=0
M  V30 3392 1 3583 3575 CFG=0
M  V30 3393 1 3584 3585 CFG=0
M  V30 3394 1 3585 3586 CFG=0
M  V30 3395 2 3586 3587 CFG=0
M  V30 3396 1 3585 3588 CFG=0
M  V30 3397 1 3588 3589 CFG=0
M  V30 3398 1 3589 3590 CFG=0
M  V30 3399 4 3590 3591 CFG=0
M  V30 3400 4 3590 3592 CFG=0
M  V30 3401 1 3584 3593 CFG=0
M  V30 3402 1 3594 3585 CFG=0
M  V30 3403 1 3595 3588 CFG=0
M  V30 3404 1 3596 3588 CFG=0
M  V30 3405 1 3597 3589 CFG=0
M  V30 3406 1 3598 3589 CFG=0
M  V30 3407 1 3599 3600 CFG=0
M  V30 3408 1 3600 3601 CFG=0
M  V30 3409 2 3601 3602 CFG=0
M  V30 3410 1 3600 3603 CFG=0
M  V30 3411 1 3603 3604 CFG=0
M  V30 3412 1 3599 3605 CFG=0
M  V30 3413 1 3606 3600 CFG=0
M  V30 3414 1 3607 3603 CFG=0
M  V30 3415 1 3608 3603 CFG=0
M  V30 3416 1 3609 3604 CFG=0
M  V30 3417 1 3610 3611 CFG=0
M  V30 3418 1 3611 3612 CFG=0
M  V30 3419 2 3612 3613 CFG=0
M  V30 3420 1 3611 3614 CFG=0
M  V30 3421 1 3614 3615 CFG=0
M  V30 3422 1 3610 3616 CFG=0
M  V30 3423 1 3617 3611 CFG=0
M  V30 3424 1 3618 3614 CFG=0
M  V30 3425 1 3619 3614 CFG=0
M  V30 3426 1 3620 3615 CFG=0
M  V30 3427 1 3621 3622 CFG=0
M  V30 3428 1 3622 3623 CFG=0
M  V30 3429 2 3623 3624 CFG=0
M  V30 3430 1 3622 3625 CFG=0
M  V30 3431 1 3625 3626 CFG=0
M  V30 3432 4 3626 3627 CFG=0
M  V30 3433 4 3626 3628 CFG=0
M  V30 3434 4 3627 3629 CFG=0
M  V30 3435 4 3628 3630 CFG=0
M  V30 3436 4 3629 3631 CFG=0
M  V30 3437 4 3630 3631 CFG=0
M  V30 3438 1 3621 3632 CFG=0
M  V30 3439 1 3633 3622 CFG=0
M  V30 3440 1 3634 3625 CFG=0
M  V30 3441 1 3635 3625 CFG=0
M  V30 3442 1 3636 3627 CFG=0
M  V30 3443 1 3637 3628 CFG=0
M  V30 3444 1 3638 3629 CFG=0
M  V30 3445 1 3639 3630 CFG=0
M  V30 3446 1 3640 3631 CFG=0
M  V30 3447 1 3641 3642 CFG=0
M  V30 3448 1 3642 3643 CFG=0
M  V30 3449 2 3643 3644 CFG=0
M  V30 3450 1 3642 3645 CFG=0
M  V30 3451 1 3645 3646 CFG=0
M  V30 3452 1 3645 3647 CFG=0
M  V30 3453 1 3641 3648 CFG=0
M  V30 3454 1 3649 3642 CFG=0
M  V30 3455 1 3650 3645 CFG=0
M  V30 3456 1 3651 3646 CFG=0
M  V30 3457 1 3652 3646 CFG=0
M  V30 3458 1 3653 3646 CFG=0
M  V30 3459 1 3654 3647 CFG=0
M  V30 3460 1 3655 3647 CFG=0
M  V30 3461 1 3656 3647 CFG=0
M  V30 3462 1 3657 3658 CFG=0
M  V30 3463 1 3658 3659 CFG=0
M  V30 3464 2 3659 3660 CFG=0
M  V30 3465 1 3658 3661 CFG=0
M  V30 3466 1 3661 3662 CFG=0
M  V30 3467 1 3662 3663 CFG=0
M  V30 3468 1 3663 3664 CFG=0
M  V30 3469 1 3657 3665 CFG=0
M  V30 3470 1 3666 3658 CFG=0
M  V30 3471 1 3667 3661 CFG=0
M  V30 3472 1 3668 3661 CFG=0
M  V30 3473 1 3669 3662 CFG=0
M  V30 3474 1 3670 3662 CFG=0
M  V30 3475 1 3671 3664 CFG=0
M  V30 3476 1 3672 3664 CFG=0
M  V30 3477 1 3673 3664 CFG=0
M  V30 3478 1 3674 3675 CFG=0
M  V30 3479 1 3675 3676 CFG=0
M  V30 3480 2 3676 3677 CFG=0
M  V30 3481 1 3675 3678 CFG=0
M  V30 3482 1 3678 3679 CFG=0
M  V30 3483 1 3679 3680 CFG=0
M  V30 3484 1 3680 3681 CFG=0
M  V30 3485 1 3674 3682 CFG=0
M  V30 3486 1 3683 3675 CFG=0
M  V30 3487 1 3684 3678 CFG=0
M  V30 3488 1 3685 3678 CFG=0
M  V30 3489 1 3686 3679 CFG=0
M  V30 3490 1 3687 3679 CFG=0
M  V30 3491 1 3688 3681 CFG=0
M  V30 3492 1 3689 3681 CFG=0
M  V30 3493 1 3690 3681 CFG=0
M  V30 3494 1 3691 3692 CFG=0
M  V30 3495 1 3692 3693 CFG=0
M  V30 3496 2 3693 3694 CFG=0
M  V30 3497 1 3692 3695 CFG=0
M  V30 3498 1 3695 3696 CFG=0
M  V30 3499 1 3691 3697 CFG=0
M  V30 3500 1 3698 3692 CFG=0
M  V30 3501 1 3699 3695 CFG=0
M  V30 3502 1 3700 3695 CFG=0
M  V30 3503 1 3701 3696 CFG=0
M  V30 3504 1 3702 3703 CFG=0
M  V30 3505 1 3703 3704 CFG=0
M  V30 3506 2 3704 3705 CFG=0
M  V30 3507 1 3703 3706 CFG=0
M  V30 3508 1 3702 3707 CFG=0
M  V30 3509 1 3708 3703 CFG=0
M  V30 3510 1 3709 3706 CFG=0
M  V30 3511 1 3710 3706 CFG=0
M  V30 3512 1 3711 3706 CFG=0
M  V30 3513 1 3712 3713 CFG=0
M  V30 3514 1 3713 3714 CFG=0
M  V30 3515 2 3714 3715 CFG=0
M  V30 3516 1 3713 3716 CFG=0
M  V30 3517 1 3716 3717 CFG=0
M  V30 3518 1 3717 3718 CFG=0
M  V30 3519 1 3718 3712 CFG=0
M  V30 3520 1 3719 3713 CFG=0
M  V30 3521 1 3720 3716 CFG=0
M  V30 3522 1 3721 3716 CFG=0
M  V30 3523 1 3722 3717 CFG=0
M  V30 3524 1 3723 3717 CFG=0
M  V30 3525 1 3724 3718 CFG=0
M  V30 3526 1 3725 3718 CFG=0
M  V30 3527 1 3726 3727 CFG=0
M  V30 3528 1 3727 3728 CFG=0
M  V30 3529 2 3728 3729 CFG=0
M  V30 3530 1 3727 3730 CFG=0
M  V30 3531 1 3730 3731 CFG=0
M  V30 3532 1 3731 3732 CFG=0
M  V30 3533 1 3732 3726 CFG=0
M  V30 3534 1 3733 3727 CFG=0
M  V30 3535 1 3734 3730 CFG=0
M  V30 3536 1 3735 3730 CFG=0
M  V30 3537 1 3736 3731 CFG=0
M  V30 3538 1 3737 3731 CFG=0
M  V30 3539 1 3738 3732 CFG=0
M  V30 3540 1 3739 3732 CFG=0
M  V30 3541 1 3740 3741 CFG=0
M  V30 3542 1 3741 3742 CFG=0
M  V30 3543 2 3742 3743 CFG=0
M  V30 3544 1 3741 3744 CFG=0
M  V30 3545 1 3740 3745 CFG=0
M  V30 3546 1 3746 3741 CFG=0
M  V30 3547 1 3747 3744 CFG=0
M  V30 3548 1 3748 3744 CFG=0
M  V30 3549 1 3749 3744 CFG=0
M  V30 3550 1 3750 3751 CFG=0
M  V30 3551 1 3751 3752 CFG=0
M  V30 3552 2 3752 3753 CFG=0
M  V30 3553 1 3751 3754 CFG=0
M  V30 3554 1 3754 3755 CFG=0
M  V30 3555 1 3755 3756 CFG=0
M  V30 3556 4 3756 3757 CFG=0
M  V30 3557 4 3756 3758 CFG=0
M  V30 3558 1 3750 3759 CFG=0
M  V30 3559 1 3760 3751 CFG=0
M  V30 3560 1 3761 3754 CFG=0
M  V30 3561 1 3762 3754 CFG=0
M  V30 3562 1 3763 3755 CFG=0
M  V30 3563 1 3764 3755 CFG=0
M  V30 3564 1 3765 3766 CFG=0
M  V30 3565 1 3766 3767 CFG=0
M  V30 3566 2 3767 3768 CFG=0
M  V30 3567 1 3766 3769 CFG=0
M  V30 3568 1 3769 3770 CFG=0
M  V30 3569 4 3770 3771 CFG=0
M  V30 3570 4 3770 3772 CFG=0
M  V30 3571 4 3771 3773 CFG=0
M  V30 3572 4 3772 3774 CFG=0
M  V30 3573 4 3773 3775 CFG=0
M  V30 3574 4 3774 3775 CFG=0
M  V30 3575 1 3775 3776 CFG=0
M  V30 3576 1 3765 3777 CFG=0
M  V30 3577 1 3778 3766 CFG=0
M  V30 3578 1 3779 3769 CFG=0
M  V30 3579 1 3780 3769 CFG=0
M  V30 3580 1 3781 3771 CFG=0
M  V30 3581 1 3782 3772 CFG=0
M  V30 3582 1 3783 3773 CFG=0
M  V30 3583 1 3784 3774 CFG=0
M  V30 3584 1 3785 3776 CFG=0
M  V30 3585 1 3786 3787 CFG=0
M  V30 3586 1 3787 3788 CFG=0
M  V30 3587 2 3788 3789 CFG=0
M  V30 3588 1 3787 3790 CFG=0
M  V30 3589 1 3790 3791 CFG=0
M  V30 3590 1 3791 3792 CFG=0
M  V30 3591 1 3792 3793 CFG=0
M  V30 3592 1 3793 3794 CFG=0
M  V30 3593 1 3786 3795 CFG=0
M  V30 3594 1 3796 3787 CFG=0
M  V30 3595 1 3797 3790 CFG=0
M  V30 3596 1 3798 3790 CFG=0
M  V30 3597 1 3799 3791 CFG=0
M  V30 3598 1 3800 3791 CFG=0
M  V30 3599 1 3801 3792 CFG=0
M  V30 3600 1 3802 3792 CFG=0
M  V30 3601 1 3803 3793 CFG=0
M  V30 3602 1 3804 3793 CFG=0
M  V30 3603 1 3805 3794 CFG=0
M  V30 3604 1 3806 3794 CFG=0
M  V30 3605 1 3807 3794 CFG=0
M  V30 3606 1 3808 3809 CFG=0
M  V30 3607 1 3809 3810 CFG=0
M  V30 3608 2 3810 3811 CFG=0
M  V30 3609 1 3809 3812 CFG=0
M  V30 3610 1 3812 3813 CFG=0
M  V30 3611 1 3813 3814 CFG=0
M  V30 3612 1 3813 3815 CFG=0
M  V30 3613 1 3808 3816 CFG=0
M  V30 3614 1 3817 3809 CFG=0
M  V30 3615 1 3818 3812 CFG=0
M  V30 3616 1 3819 3812 CFG=0
M  V30 3617 1 3820 3813 CFG=0
M  V30 3618 1 3821 3814 CFG=0
M  V30 3619 1 3822 3814 CFG=0
M  V30 3620 1 3823 3814 CFG=0
M  V30 3621 1 3824 3815 CFG=0
M  V30 3622 1 3825 3815 CFG=0
M  V30 3623 1 3826 3815 CFG=0
M  V30 3624 1 3827 3828 CFG=0
M  V30 3625 1 3828 3829 CFG=0
M  V30 3626 2 3829 3830 CFG=0
M  V30 3627 1 3828 3831 CFG=0
M  V30 3628 1 3831 3832 CFG=0
M  V30 3629 1 3832 3833 CFG=0
M  V30 3630 2 3833 3834 CFG=0
M  V30 3631 1 3833 3835 CFG=0
M  V30 3632 1 3827 3836 CFG=0
M  V30 3633 1 3837 3828 CFG=0
M  V30 3634 1 3838 3831 CFG=0
M  V30 3635 1 3839 3831 CFG=0
M  V30 3636 1 3840 3832 CFG=0
M  V30 3637 1 3841 3832 CFG=0
M  V30 3638 1 3842 3835 CFG=0
M  V30 3639 1 3843 3835 CFG=0
M  V30 3640 1 3844 3845 CFG=0
M  V30 3641 1 3845 3846 CFG=0
M  V30 3642 2 3846 3847 CFG=0
M  V30 3643 1 3845 3848 CFG=0
M  V30 3644 1 3848 3849 CFG=0
M  V30 3645 1 3849 3850 CFG=0
M  V30 3646 2 3850 3851 CFG=0
M  V30 3647 1 3850 3852 CFG=0
M  V30 3648 1 3844 3853 CFG=0
M  V30 3649 1 3854 3845 CFG=0
M  V30 3650 1 3855 3848 CFG=0
M  V30 3651 1 3856 3848 CFG=0
M  V30 3652 1 3857 3849 CFG=0
M  V30 3653 1 3858 3849 CFG=0
M  V30 3654 1 3859 3852 CFG=0
M  V30 3655 1 3860 3852 CFG=0
M  V30 3656 1 3861 3862 CFG=0
M  V30 3657 1 3862 3863 CFG=0
M  V30 3658 2 3863 3864 CFG=0
M  V30 3659 1 3861 3865 CFG=0
M  V30 3660 1 3866 3862 CFG=0
M  V30 3661 1 3867 3862 CFG=0
M  V30 3662 1 3868 3869 CFG=0
M  V30 3663 1 3869 3870 CFG=0
M  V30 3664 2 3870 3871 CFG=0
M  V30 3665 1 3869 3872 CFG=0
M  V30 3666 1 3872 3873 CFG=0
M  V30 3667 1 3872 3874 CFG=0
M  V30 3668 1 3868 3875 CFG=0
M  V30 3669 1 3876 3869 CFG=0
M  V30 3670 1 3877 3872 CFG=0
M  V30 3671 1 3878 3873 CFG=0
M  V30 3672 1 3879 3874 CFG=0
M  V30 3673 1 3880 3874 CFG=0
M  V30 3674 1 3881 3874 CFG=0
M  V30 3675 1 3882 3883 CFG=0
M  V30 3676 1 3883 3884 CFG=0
M  V30 3677 2 3884 3885 CFG=0
M  V30 3678 1 3883 3886 CFG=0
M  V30 3679 1 3886 3887 CFG=0
M  V30 3680 4 3887 3888 CFG=0
M  V30 3681 4 3887 3889 CFG=0
M  V30 3682 4 3888 3890 CFG=0
M  V30 3683 4 3889 3891 CFG=0
M  V30 3684 4 3890 3892 CFG=0
M  V30 3685 4 3891 3892 CFG=0
M  V30 3686 1 3882 3893 CFG=0
M  V30 3687 1 3894 3883 CFG=0
M  V30 3688 1 3895 3886 CFG=0
M  V30 3689 1 3896 3886 CFG=0
M  V30 3690 1 3897 3888 CFG=0
M  V30 3691 1 3898 3889 CFG=0
M  V30 3692 1 3899 3890 CFG=0
M  V30 3693 1 3900 3891 CFG=0
M  V30 3694 1 3901 3892 CFG=0
M  V30 3695 1 3902 3903 CFG=0
M  V30 3696 1 3903 3904 CFG=0
M  V30 3697 2 3904 3905 CFG=0
M  V30 3698 1 3903 3906 CFG=0
M  V30 3699 1 3906 3907 CFG=0
M  V30 3700 1 3907 3908 CFG=0
M  V30 3701 1 3907 3909 CFG=0
M  V30 3702 1 3902 3910 CFG=0
M  V30 3703 1 3911 3903 CFG=0
M  V30 3704 1 3912 3906 CFG=0
M  V30 3705 1 3913 3906 CFG=0
M  V30 3706 1 3914 3907 CFG=0
M  V30 3707 1 3915 3908 CFG=0
M  V30 3708 1 3916 3908 CFG=0
M  V30 3709 1 3917 3908 CFG=0
M  V30 3710 1 3918 3909 CFG=0
M  V30 3711 1 3919 3909 CFG=0
M  V30 3712 1 3920 3909 CFG=0
M  V30 3713 1 3921 3922 CFG=0
M  V30 3714 1 3922 3923 CFG=0
M  V30 3715 2 3923 3924 CFG=0
M  V30 3716 1 3922 3925 CFG=0
M  V30 3717 1 3925 3926 CFG=0
M  V30 3718 1 3921 3927 CFG=0
M  V30 3719 1 3928 3922 CFG=0
M  V30 3720 1 3929 3925 CFG=0
M  V30 3721 1 3930 3925 CFG=0
M  V30 3722 1 3931 3926 CFG=0
M  V30 3723 1 3932 3933 CFG=0
M  V30 3724 1 3933 3934 CFG=0
M  V30 3725 2 3934 3935 CFG=0
M  V30 3726 1 3933 3936 CFG=0
M  V30 3727 1 3932 3937 CFG=0
M  V30 3728 1 3938 3933 CFG=0
M  V30 3729 1 3939 3936 CFG=0
M  V30 3730 1 3940 3936 CFG=0
M  V30 3731 1 3941 3936 CFG=0
M  V30 3732 1 3942 3943 CFG=0
M  V30 3733 1 3943 3944 CFG=0
M  V30 3734 2 3944 3945 CFG=0
M  V30 3735 1 3943 3946 CFG=0
M  V30 3736 1 3946 3947 CFG=0
M  V30 3737 2 3947 3948 CFG=0
M  V30 3738 1 3947 3949 CFG=0
M  V30 3739 1 3942 3950 CFG=0
M  V30 3740 1 3951 3943 CFG=0
M  V30 3741 1 3952 3946 CFG=0
M  V30 3742 1 3953 3946 CFG=0
M  V30 3743 1 3954 3949 CFG=0
M  V30 3744 1 3955 3949 CFG=0
M  V30 3745 1 3956 3957 CFG=0
M  V30 3746 1 3957 3958 CFG=0
M  V30 3747 2 3958 3959 CFG=0
M  V30 3748 1 3957 3960 CFG=0
M  V30 3749 1 3960 3961 CFG=0
M  V30 3750 1 3961 3962 CFG=0
M  V30 3751 4 3962 3963 CFG=0
M  V30 3752 4 3962 3964 CFG=0
M  V30 3753 1 3956 3965 CFG=0
M  V30 3754 1 3966 3957 CFG=0
M  V30 3755 1 3967 3960 CFG=0
M  V30 3756 1 3968 3960 CFG=0
M  V30 3757 1 3969 3961 CFG=0
M  V30 3758 1 3970 3961 CFG=0
M  V30 3759 1 3971 3972 CFG=0
M  V30 3760 1 3972 3973 CFG=0
M  V30 3761 2 3973 3974 CFG=0
M  V30 3762 1 3972 3975 CFG=0
M  V30 3763 1 3975 3976 CFG=0
M  V30 3764 4 3976 3977 CFG=0
M  V30 3765 4 3976 3978 CFG=0
M  V30 3766 4 3977 3979 CFG=0
M  V30 3767 4 3978 3980 CFG=0
M  V30 3768 4 3979 3981 CFG=0
M  V30 3769 4 3980 3981 CFG=0
M  V30 3770 1 3981 3982 CFG=0
M  V30 3771 1 3971 3983 CFG=0
M  V30 3772 1 3984 3972 CFG=0
M  V30 3773 1 3985 3975 CFG=0
M  V30 3774 1 3986 3975 CFG=0
M  V30 3775 1 3987 3977 CFG=0
M  V30 3776 1 3988 3978 CFG=0
M  V30 3777 1 3989 3979 CFG=0
M  V30 3778 1 3990 3980 CFG=0
M  V30 3779 1 3991 3982 CFG=0
M  V30 3780 1 3992 3993 CFG=0
M  V30 3781 1 3993 3994 CFG=0
M  V30 3782 2 3994 3995 CFG=0
M  V30 3783 1 3993 3996 CFG=0
M  V30 3784 1 3996 3997 CFG=0
M  V30 3785 1 3996 3998 CFG=0
M  V30 3786 1 3992 3999 CFG=0
M  V30 3787 1 4000 3993 CFG=0
M  V30 3788 1 4001 3996 CFG=0
M  V30 3789 1 4002 3997 CFG=0
M  V30 3790 1 4003 3998 CFG=0
M  V30 3791 1 4004 3998 CFG=0
M  V30 3792 1 4005 3998 CFG=0
M  V30 3793 1 4006 4007 CFG=0
M  V30 3794 1 4007 4008 CFG=0
M  V30 3795 2 4008 4009 CFG=0
M  V30 3796 1 4006 4010 CFG=0
M  V30 3797 1 4011 4007 CFG=0
M  V30 3798 1 4012 4007 CFG=0
M  V30 3799 1 4013 4014 CFG=0
M  V30 3800 1 4014 4015 CFG=0
M  V30 3801 2 4015 4016 CFG=0
M  V30 3802 1 4014 4017 CFG=0
M  V30 3803 1 4017 4018 CFG=0
M  V30 3804 2 4018 4019 CFG=0
M  V30 3805 1 4018 4020 CFG=0
M  V30 3806 1 4013 4021 CFG=0
M  V30 3807 1 4022 4014 CFG=0
M  V30 3808 1 4023 4017 CFG=0
M  V30 3809 1 4024 4017 CFG=0
M  V30 3810 1 4025 4020 CFG=0
M  V30 3811 1 4026 4020 CFG=0
M  V30 3812 1 4027 4028 CFG=0
M  V30 3813 1 4028 4029 CFG=0
M  V30 3814 2 4029 4030 CFG=0
M  V30 3815 1 4028 4031 CFG=0
M  V30 3816 1 4031 4032 CFG=0
M  V30 3817 4 4032 4033 CFG=0
M  V30 3818 4 4032 4034 CFG=0
M  V30 3819 4 4033 4035 CFG=0
M  V30 3820 4 4034 4036 CFG=0
M  V30 3821 4 4035 4037 CFG=0
M  V30 3822 4 4036 4037 CFG=0
M  V30 3823 1 4037 4038 CFG=0
M  V30 3824 1 4027 4039 CFG=0
M  V30 3825 1 4040 4028 CFG=0
M  V30 3826 1 4041 4031 CFG=0
M  V30 3827 1 4042 4031 CFG=0
M  V30 3828 1 4043 4033 CFG=0
M  V30 3829 1 4044 4034 CFG=0
M  V30 3830 1 4045 4035 CFG=0
M  V30 3831 1 4046 4036 CFG=0
M  V30 3832 1 4047 4038 CFG=0
M  V30 3833 1 4048 4049 CFG=0
M  V30 3834 1 4049 4050 CFG=0
M  V30 3835 2 4050 4051 CFG=0
M  V30 3836 1 4049 4052 CFG=0
M  V30 3837 1 4052 4053 CFG=0
M  V30 3838 1 4053 4054 CFG=0
M  V30 3839 2 4054 4055 CFG=0
M  V30 3840 1 4054 4056 CFG=0
M  V30 3841 1 4048 4057 CFG=0
M  V30 3842 1 4058 4049 CFG=0
M  V30 3843 1 4059 4052 CFG=0
M  V30 3844 1 4060 4052 CFG=0
M  V30 3845 1 4061 4053 CFG=0
M  V30 3846 1 4062 4053 CFG=0
M  V30 3847 1 4063 4056 CFG=0
M  V30 3848 1 4064 4056 CFG=0
M  V30 3849 1 4065 4066 CFG=0
M  V30 3850 1 4066 4067 CFG=0
M  V30 3851 1 4066 4069 CFG=0
M  V30 3852 1 4067 4068 CFG=0
M  V30 3853 1 4068 4071 CFG=0
M  V30 3854 2 4069 4070 CFG=0
M  V30 3855 1 4065 4072 CFG=0
M  V30 3856 1 4066 4073 CFG=0
M  V30 3857 1 4067 4074 CFG=0
M  V30 3858 1 4067 4075 CFG=0
M  V30 3859 1 4071 4076 CFG=0
M  V30 3860 1 4077 4078 CFG=0
M  V30 3861 1 4078 4079 CFG=0
M  V30 3862 2 4079 4080 CFG=0
M  V30 3863 1 4077 4081 CFG=0
M  V30 3864 1 4082 4078 CFG=0
M  V30 3865 1 4083 4078 CFG=0
M  V30 3866 1 4084 4085 CFG=0
M  V30 3867 1 4085 4086 CFG=0
M  V30 3868 2 4086 4087 CFG=0
M  V30 3869 1 4085 4088 CFG=0
M  V30 3870 1 4088 4089 CFG=0
M  V30 3871 1 4089 4090 CFG=0
M  V30 3872 2 4089 4091 CFG=0
M  V30 3873 1 4090 4092 CFG=0
M  V30 3874 1 4091 4093 CFG=0
M  V30 3875 2 4092 4093 CFG=0
M  V30 3876 1 4084 4094 CFG=0
M  V30 3877 1 4095 4085 CFG=0
M  V30 3878 1 4096 4088 CFG=0
M  V30 3879 1 4097 4088 CFG=0
M  V30 3880 1 4098 4090 CFG=0
M  V30 3881 1 4099 4091 CFG=0
M  V30 3882 1 4100 4092 CFG=0
M  V30 3883 1 4101 4093 CFG=0
M  V30 3884 1 4102 4103 CFG=0
M  V30 3885 1 4103 4104 CFG=0
M  V30 3886 2 4104 4105 CFG=0
M  V30 3887 1 4103 4106 CFG=0
M  V30 3888 1 4106 4107 CFG=0
M  V30 3889 4 4107 4108 CFG=0
M  V30 3890 4 4107 4109 CFG=0
M  V30 3891 4 4108 4110 CFG=0
M  V30 3892 4 4109 4111 CFG=0
M  V30 3893 4 4110 4112 CFG=0
M  V30 3894 4 4111 4112 CFG=0
M  V30 3895 1 4112 4113 CFG=0
M  V30 3896 1 4102 4114 CFG=0
M  V30 3897 1 4115 4103 CFG=0
M  V30 3898 1 4116 4106 CFG=0
M  V30 3899 1 4117 4106 CFG=0
M  V30 3900 1 4118 4108 CFG=0
M  V30 3901 1 4119 4109 CFG=0
M  V30 3902 1 4120 4110 CFG=0
M  V30 3903 1 4121 4111 CFG=0
M  V30 3904 1 4122 4113 CFG=0
M  V30 3905 1 4123 4124 CFG=0
M  V30 3906 1 4124 4125 CFG=0
M  V30 3907 2 4125 4126 CFG=0
M  V30 3908 1 4124 4127 CFG=0
M  V30 3909 1 4127 4128 CFG=0
M  V30 3910 1 4127 4129 CFG=0
M  V30 3911 1 4123 4130 CFG=0
M  V30 3912 1 4131 4124 CFG=0
M  V30 3913 1 4132 4127 CFG=0
M  V30 3914 1 4133 4128 CFG=0
M  V30 3915 1 4134 4129 CFG=0
M  V30 3916 1 4135 4129 CFG=0
M  V30 3917 1 4136 4129 CFG=0
M  V30 3918 1 4137 4138 CFG=0
M  V30 3919 1 4138 4139 CFG=0
M  V30 3920 2 4139 4140 CFG=0
M  V30 3921 1 4138 4141 CFG=0
M  V30 3922 1 4141 4142 CFG=0
M  V30 3923 1 4142 4143 CFG=0
M  V30 3924 2 4142 4144 CFG=0
M  V30 3925 1 4143 4145 CFG=0
M  V30 3926 1 4144 4146 CFG=0
M  V30 3927 2 4145 4146 CFG=0
M  V30 3928 1 4137 4147 CFG=0
M  V30 3929 1 4148 4138 CFG=0
M  V30 3930 1 4149 4141 CFG=0
M  V30 3931 1 4150 4141 CFG=0
M  V30 3932 1 4151 4143 CFG=0
M  V30 3933 1 4152 4144 CFG=0
M  V30 3934 1 4153 4145 CFG=0
M  V30 3935 1 4154 4146 CFG=0
M  V30 3936 1 4155 4156 CFG=0
M  V30 3937 1 4156 4157 CFG=0
M  V30 3938 2 4157 4158 CFG=0
M  V30 3939 1 4156 4159 CFG=0
M  V30 3940 1 4159 4160 CFG=0
M  V30 3941 1 4159 4161 CFG=0
M  V30 3942 1 4160 4162 CFG=0
M  V30 3943 1 4155 4163 CFG=0
M  V30 3944 1 4164 4156 CFG=0
M  V30 3945 1 4165 4159 CFG=0
M  V30 3946 1 4166 4160 CFG=0
M  V30 3947 1 4167 4160 CFG=0
M  V30 3948 1 4168 4161 CFG=0
M  V30 3949 1 4169 4161 CFG=0
M  V30 3950 1 4170 4161 CFG=0
M  V30 3951 1 4171 4162 CFG=0
M  V30 3952 1 4172 4162 CFG=0
M  V30 3953 1 4173 4162 CFG=0
M  V30 3954 1 4174 4175 CFG=0
M  V30 3955 1 4175 4176 CFG=0
M  V30 3956 2 4176 4177 CFG=0
M  V30 3957 1 4175 4178 CFG=0
M  V30 3958 1 4178 4179 CFG=0
M  V30 3959 1 4178 4180 CFG=0
M  V30 3960 1 4174 4181 CFG=0
M  V30 3961 1 4182 4175 CFG=0
M  V30 3962 1 4183 4178 CFG=0
M  V30 3963 1 4184 4179 CFG=0
M  V30 3964 1 4185 4180 CFG=0
M  V30 3965 1 4186 4180 CFG=0
M  V30 3966 1 4187 4180 CFG=0
M  V30 3967 1 4188 4189 CFG=0
M  V30 3968 1 4189 4190 CFG=0
M  V30 3969 2 4190 4191 CFG=0
M  V30 3970 1 4189 4192 CFG=0
M  V30 3971 1 4188 4193 CFG=0
M  V30 3972 1 4194 4189 CFG=0
M  V30 3973 1 4195 4192 CFG=0
M  V30 3974 1 4196 4192 CFG=0
M  V30 3975 1 4197 4192 CFG=0
M  V30 3976 1 4198 4199 CFG=0
M  V30 3977 1 4199 4200 CFG=0
M  V30 3978 2 4200 4201 CFG=0
M  V30 3979 1 4199 4202 CFG=0
M  V30 3980 1 4202 4203 CFG=0
M  V30 3981 1 4203 4204 CFG=0
M  V30 3982 1 4204 4205 CFG=0
M  V30 3983 1 4205 4206 CFG=0
M  V30 3984 1 4198 4207 CFG=0
M  V30 3985 1 4208 4199 CFG=0
M  V30 3986 1 4209 4202 CFG=0
M  V30 3987 1 4210 4202 CFG=0
M  V30 3988 1 4211 4203 CFG=0
M  V30 3989 1 4212 4203 CFG=0
M  V30 3990 1 4213 4204 CFG=0
M  V30 3991 1 4214 4204 CFG=0
M  V30 3992 1 4215 4205 CFG=0
M  V30 3993 1 4216 4205 CFG=0
M  V30 3994 1 4217 4206 CFG=0
M  V30 3995 1 4218 4206 CFG=0
M  V30 3996 1 4219 4206 CFG=0
M  V30 3997 1 4220 4221 CFG=0
M  V30 3998 1 4221 4222 CFG=0
M  V30 3999 2 4222 4223 CFG=0
M  V30 4000 1 4221 4224 CFG=0
M  V30 4001 1 4224 4225 CFG=0
M  V30 4002 1 4225 4226 CFG=0
M  V30 4003 4 4226 4227 CFG=0
M  V30 4004 4 4226 4228 CFG=0
M  V30 4005 1 4220 4229 CFG=0
M  V30 4006 1 4230 4221 CFG=0
M  V30 4007 1 4231 4224 CFG=0
M  V30 4008 1 4232 4224 CFG=0
M  V30 4009 1 4233 4225 CFG=0
M  V30 4010 1 4234 4225 CFG=0
M  V30 4011 1 4235 4236 CFG=0
M  V30 4012 1 4236 4237 CFG=0
M  V30 4013 2 4237 4238 CFG=0
M  V30 4014 1 4236 4239 CFG=0
M  V30 4015 1 4239 4240 CFG=0
M  V30 4016 1 4239 4241 CFG=0
M  V30 4017 1 4235 4242 CFG=0
M  V30 4018 1 4243 4236 CFG=0
M  V30 4019 1 4244 4239 CFG=0
M  V30 4020 1 4245 4240 CFG=0
M  V30 4021 1 4246 4241 CFG=0
M  V30 4022 1 4247 4241 CFG=0
M  V30 4023 1 4248 4241 CFG=0
M  V30 4024 1 4249 4250 CFG=0
M  V30 4025 1 4250 4251 CFG=0
M  V30 4026 2 4251 4252 CFG=0
M  V30 4027 1 4250 4253 CFG=0
M  V30 4028 1 4253 4254 CFG=0
M  V30 4029 1 4254 4255 CFG=0
M  V30 4030 1 4254 4256 CFG=0
M  V30 4031 1 4249 4257 CFG=0
M  V30 4032 1 4258 4250 CFG=0
M  V30 4033 1 4259 4253 CFG=0
M  V30 4034 1 4260 4253 CFG=0
M  V30 4035 1 4261 4254 CFG=0
M  V30 4036 1 4262 4255 CFG=0
M  V30 4037 1 4263 4255 CFG=0
M  V30 4038 1 4264 4255 CFG=0
M  V30 4039 1 4265 4256 CFG=0
M  V30 4040 1 4266 4256 CFG=0
M  V30 4041 1 4267 4256 CFG=0
M  V30 4042 1 4268 4269 CFG=0
M  V30 4043 1 4269 4270 CFG=0
M  V30 4044 2 4270 4271 CFG=0
M  V30 4045 1 4269 4272 CFG=0
M  V30 4046 1 4272 4273 CFG=0
M  V30 4047 4 4273 4274 CFG=0
M  V30 4048 4 4273 4275 CFG=0
M  V30 4049 4 4274 4276 CFG=0
M  V30 4050 4 4275 4277 CFG=0
M  V30 4051 4 4276 4278 CFG=0
M  V30 4052 4 4277 4278 CFG=0
M  V30 4053 1 4278 4279 CFG=0
M  V30 4054 1 4268 4280 CFG=0
M  V30 4055 1 4281 4269 CFG=0
M  V30 4056 1 4282 4272 CFG=0
M  V30 4057 1 4283 4272 CFG=0
M  V30 4058 1 4284 4274 CFG=0
M  V30 4059 1 4285 4275 CFG=0
M  V30 4060 1 4286 4276 CFG=0
M  V30 4061 1 4287 4277 CFG=0
M  V30 4062 1 4288 4279 CFG=0
M  V30 4063 1 4289 4290 CFG=0
M  V30 4064 1 4290 4291 CFG=0
M  V30 4065 2 4291 4292 CFG=0
M  V30 4066 1 4290 4293 CFG=0
M  V30 4067 1 4293 4294 CFG=0
M  V30 4068 1 4294 4295 CFG=0
M  V30 4069 1 4295 4296 CFG=0
M  V30 4070 1 4296 4297 CFG=0
M  V30 4071 4 4297 4298 CFG=0
M  V30 4072 4 4297 4299 CFG=0
M  V30 4073 1 4289 4300 CFG=0
M  V30 4074 1 4301 4290 CFG=0
M  V30 4075 1 4302 4293 CFG=0
M  V30 4076 1 4303 4293 CFG=0
M  V30 4077 1 4304 4294 CFG=0
M  V30 4078 1 4305 4294 CFG=0
M  V30 4079 1 4306 4295 CFG=0
M  V30 4080 1 4307 4295 CFG=0
M  V30 4081 1 4308 4296 CFG=0
M  V30 4082 1 4309 4298 CFG=0
M  V30 4083 1 4310 4298 CFG=0
M  V30 4084 1 4311 4299 CFG=0
M  V30 4085 1 4312 4299 CFG=0
M  V30 4086 1 4313 4314 CFG=0
M  V30 4087 1 4314 4315 CFG=0
M  V30 4088 2 4315 4316 CFG=0
M  V30 4089 1 4314 4317 CFG=0
M  V30 4090 1 4317 4318 CFG=0
M  V30 4091 1 4317 4319 CFG=0
M  V30 4092 1 4318 4320 CFG=0
M  V30 4093 1 4313 4321 CFG=0
M  V30 4094 1 4322 4314 CFG=0
M  V30 4095 1 4323 4317 CFG=0
M  V30 4096 1 4324 4318 CFG=0
M  V30 4097 1 4325 4318 CFG=0
M  V30 4098 1 4326 4319 CFG=0
M  V30 4099 1 4327 4319 CFG=0
M  V30 4100 1 4328 4319 CFG=0
M  V30 4101 1 4329 4320 CFG=0
M  V30 4102 1 4330 4320 CFG=0
M  V30 4103 1 4331 4320 CFG=0
M  V30 4104 1 4332 4333 CFG=0
M  V30 4105 1 4333 4334 CFG=0
M  V30 4106 2 4334 4335 CFG=0
M  V30 4107 1 4333 4336 CFG=0
M  V30 4108 1 4336 4337 CFG=0
M  V30 4109 4 4337 4338 CFG=0
M  V30 4110 4 4337 4339 CFG=0
M  V30 4111 1 4332 4340 CFG=0
M  V30 4112 1 4341 4333 CFG=0
M  V30 4113 1 4342 4336 CFG=0
M  V30 4114 1 4343 4336 CFG=0
M  V30 4115 1 4344 4345 CFG=0
M  V30 4116 1 4345 4346 CFG=0
M  V30 4117 2 4346 4347 CFG=0
M  V30 4118 1 4344 4348 CFG=0
M  V30 4119 1 4349 4345 CFG=0
M  V30 4120 1 4350 4345 CFG=0
M  V30 4121 1 4351 4352 CFG=0
M  V30 4122 1 4352 4353 CFG=0
M  V30 4123 2 4353 4354 CFG=0
M  V30 4124 1 4352 4355 CFG=0
M  V30 4125 1 4351 4356 CFG=0
M  V30 4126 1 4357 4352 CFG=0
M  V30 4127 1 4358 4355 CFG=0
M  V30 4128 1 4359 4355 CFG=0
M  V30 4129 1 4360 4355 CFG=0
M  V30 4130 1 4361 4362 CFG=0
M  V30 4131 1 4362 4363 CFG=0
M  V30 4132 2 4363 4364 CFG=0
M  V30 4133 1 4362 4365 CFG=0
M  V30 4134 1 4365 4366 CFG=0
M  V30 4135 1 4366 4367 CFG=0
M  V30 4136 2 4366 4368 CFG=0
M  V30 4137 1 4367 4369 CFG=0
M  V30 4138 1 4368 4370 CFG=0
M  V30 4139 2 4369 4370 CFG=0
M  V30 4140 1 4361 4371 CFG=0
M  V30 4141 1 4372 4362 CFG=0
M  V30 4142 1 4373 4365 CFG=0
M  V30 4143 1 4374 4365 CFG=0
M  V30 4144 1 4375 4367 CFG=0
M  V30 4145 1 4376 4368 CFG=0
M  V30 4146 1 4377 4369 CFG=0
M  V30 4147 1 4378 4370 CFG=0
M  V30 4148 1 4379 4380 CFG=0
M  V30 4149 1 4380 4381 CFG=0
M  V30 4150 2 4381 4382 CFG=0
M  V30 4151 1 4380 4383 CFG=0
M  V30 4152 1 4383 4384 CFG=0
M  V30 4153 1 4384 4385 CFG=0
M  V30 4154 1 4384 4386 CFG=0
M  V30 4155 1 4379 4387 CFG=0
M  V30 4156 1 4388 4380 CFG=0
M  V30 4157 1 4389 4383 CFG=0
M  V30 4158 1 4390 4383 CFG=0
M  V30 4159 1 4391 4384 CFG=0
M  V30 4160 1 4392 4385 CFG=0
M  V30 4161 1 4393 4385 CFG=0
M  V30 4162 1 4394 4385 CFG=0
M  V30 4163 1 4395 4386 CFG=0
M  V30 4164 1 4396 4386 CFG=0
M  V30 4165 1 4397 4386 CFG=0
M  V30 4166 1 4398 4399 CFG=0
M  V30 4167 1 4399 4400 CFG=0
M  V30 4168 2 4400 4401 CFG=0
M  V30 4169 1 4399 4402 CFG=0
M  V30 4170 1 4402 4403 CFG=0
M  V30 4171 1 4402 4404 CFG=0
M  V30 4172 1 4398 4405 CFG=0
M  V30 4173 1 4406 4399 CFG=0
M  V30 4174 1 4407 4402 CFG=0
M  V30 4175 1 4408 4403 CFG=0
M  V30 4176 1 4409 4404 CFG=0
M  V30 4177 1 4410 4404 CFG=0
M  V30 4178 1 4411 4404 CFG=0
M  V30 4179 1 4412 4413 CFG=0
M  V30 4180 1 4413 4414 CFG=0
M  V30 4181 2 4414 4415 CFG=0
M  V30 4182 1 4413 4416 CFG=0
M  V30 4183 1 4416 4417 CFG=0
M  V30 4184 1 4417 4418 CFG=0
M  V30 4185 1 4418 4419 CFG=0
M  V30 4186 1 4419 4420 CFG=0
M  V30 4187 1 4412 4421 CFG=0
M  V30 4188 1 4422 4413 CFG=0
M  V30 4189 1 4423 4416 CFG=0
M  V30 4190 1 4424 4416 CFG=0
M  V30 4191 1 4425 4417 CFG=0
M  V30 4192 1 4426 4417 CFG=0
M  V30 4193 1 4427 4418 CFG=0
M  V30 4194 1 4428 4418 CFG=0
M  V30 4195 1 4429 4419 CFG=0
M  V30 4196 1 4430 4419 CFG=0
M  V30 4197 1 4431 4420 CFG=0
M  V30 4198 1 4432 4420 CFG=0
M  V30 4199 1 4433 4420 CFG=0
M  V30 4200 1 4434 4435 CFG=0
M  V30 4201 1 4435 4436 CFG=0
M  V30 4202 2 4436 4437 CFG=0
M  V30 4203 1 4435 4438 CFG=0
M  V30 4204 1 4438 4439 CFG=0
M  V30 4205 1 4439 4440 CFG=0
M  V30 4206 1 4440 4441 CFG=0
M  V30 4207 1 4434 4442 CFG=0
M  V30 4208 1 4443 4435 CFG=0
M  V30 4209 1 4444 4438 CFG=0
M  V30 4210 1 4445 4438 CFG=0
M  V30 4211 1 4446 4439 CFG=0
M  V30 4212 1 4447 4439 CFG=0
M  V30 4213 1 4448 4441 CFG=0
M  V30 4214 1 4449 4441 CFG=0
M  V30 4215 1 4450 4441 CFG=0
M  V30 4216 1 4451 4452 CFG=0
M  V30 4217 1 4452 4453 CFG=0
M  V30 4218 2 4453 4454 CFG=0
M  V30 4219 1 4452 4455 CFG=0
M  V30 4220 1 4455 4456 CFG=0
M  V30 4221 1 4451 4457 CFG=0
M  V30 4222 1 4458 4452 CFG=0
M  V30 4223 1 4459 4455 CFG=0
M  V30 4224 1 4460 4455 CFG=0
M  V30 4225 1 4461 4456 CFG=0
M  V30 4226 1 4462 4463 CFG=0
M  V30 4227 1 4463 4464 CFG=0
M  V30 4228 2 4464 4465 CFG=0
M  V30 4229 1 4463 4466 CFG=0
M  V30 4230 1 4466 4467 CFG=0
M  V30 4231 1 4467 4468 CFG=0
M  V30 4232 4 4468 4469 CFG=0
M  V30 4233 4 4468 4470 CFG=0
M  V30 4234 1 4462 4471 CFG=0
M  V30 4235 1 4472 4463 CFG=0
M  V30 4236 1 4473 4466 CFG=0
M  V30 4237 1 4474 4466 CFG=0
M  V30 4238 1 4475 4467 CFG=0
M  V30 4239 1 4476 4467 CFG=0
M  V30 4240 1 4477 4478 CFG=0
M  V30 4241 1 4478 4479 CFG=0
M  V30 4242 2 4479 4480 CFG=0
M  V30 4243 1 4478 4481 CFG=0
M  V30 4244 1 4481 4482 CFG=0
M  V30 4245 4 4482 4483 CFG=0
M  V30 4246 4 4482 4484 CFG=0
M  V30 4247 4 4483 4485 CFG=0
M  V30 4248 4 4484 4486 CFG=0
M  V30 4249 4 4485 4487 CFG=0
M  V30 4250 4 4486 4487 CFG=0
M  V30 4251 1 4487 4488 CFG=0
M  V30 4252 1 4477 4489 CFG=0
M  V30 4253 1 4490 4478 CFG=0
M  V30 4254 1 4491 4481 CFG=0
M  V30 4255 1 4492 4481 CFG=0
M  V30 4256 1 4493 4483 CFG=0
M  V30 4257 1 4494 4484 CFG=0
M  V30 4258 1 4495 4485 CFG=0
M  V30 4259 1 4496 4486 CFG=0
M  V30 4260 1 4497 4488 CFG=0
M  V30 4261 1 4498 4499 CFG=0
M  V30 4262 1 4499 4500 CFG=0
M  V30 4263 2 4500 4501 CFG=0
M  V30 4264 1 4499 4502 CFG=0
M  V30 4265 1 4502 4503 CFG=0
M  V30 4266 1 4503 4504 CFG=0
M  V30 4267 1 4504 4505 CFG=0
M  V30 4268 1 4505 4506 CFG=0
M  V30 4269 1 4498 4507 CFG=0
M  V30 4270 1 4508 4499 CFG=0
M  V30 4271 1 4509 4502 CFG=0
M  V30 4272 1 4510 4502 CFG=0
M  V30 4273 1 4511 4503 CFG=0
M  V30 4274 1 4512 4503 CFG=0
M  V30 4275 1 4513 4504 CFG=0
M  V30 4276 1 4514 4504 CFG=0
M  V30 4277 1 4515 4505 CFG=0
M  V30 4278 1 4516 4505 CFG=0
M  V30 4279 1 4517 4506 CFG=0
M  V30 4280 1 4518 4506 CFG=0
M  V30 4281 1 4519 4506 CFG=0
M  V30 4282 1 4520 4521 CFG=0
M  V30 4283 1 4521 4522 CFG=0
M  V30 4284 2 4522 4523 CFG=0
M  V30 4285 1 4520 4524 CFG=0
M  V30 4286 1 4525 4521 CFG=0
M  V30 4287 1 4526 4521 CFG=0
M  V30 4288 1 4527 4528 CFG=0
M  V30 4289 1 4528 4529 CFG=0
M  V30 4290 2 4529 4530 CFG=0
M  V30 4291 1 4528 4531 CFG=0
M  V30 4292 1 4531 4532 CFG=0
M  V30 4293 1 4532 4533 CFG=0
M  V30 4294 1 4533 4527 CFG=0
M  V30 4295 1 4534 4528 CFG=0
M  V30 4296 1 4535 4531 CFG=0
M  V30 4297 1 4536 4531 CFG=0
M  V30 4298 1 4537 4532 CFG=0
M  V30 4299 1 4538 4532 CFG=0
M  V30 4300 1 4539 4533 CFG=0
M  V30 4301 1 4540 4533 CFG=0
M  V30 4302 1 4541 4542 CFG=0
M  V30 4303 1 4542 4543 CFG=0
M  V30 4304 2 4543 4544 CFG=0
M  V30 4305 1 4542 4545 CFG=0
M  V30 4306 1 4545 4546 CFG=0
M  V30 4307 1 4545 4547 CFG=0
M  V30 4308 1 4541 4548 CFG=0
M  V30 4309 1 4549 4542 CFG=0
M  V30 4310 1 4550 4545 CFG=0
M  V30 4311 1 4551 4546 CFG=0
M  V30 4312 1 4552 4546 CFG=0
M  V30 4313 1 4553 4546 CFG=0
M  V30 4314 1 4554 4547 CFG=0
M  V30 4315 1 4555 4547 CFG=0
M  V30 4316 1 4556 4547 CFG=0
M  V30 4317 1 4557 4558 CFG=0
M  V30 4318 1 4558 4559 CFG=0
M  V30 4319 2 4559 4560 CFG=0
M  V30 4320 1 4558 4561 CFG=0
M  V30 4321 1 4561 4562 CFG=0
M  V30 4322 1 4561 4563 CFG=0
M  V30 4323 1 4557 4564 CFG=0
M  V30 4324 1 4565 4558 CFG=0
M  V30 4325 1 4566 4561 CFG=0
M  V30 4326 1 4567 4562 CFG=0
M  V30 4327 1 4568 4563 CFG=0
M  V30 4328 1 4569 4563 CFG=0
M  V30 4329 1 4570 4563 CFG=0
M  V30 4330 1 4571 4572 CFG=0
M  V30 4331 1 4572 4573 CFG=0
M  V30 4332 2 4573 4574 CFG=0
M  V30 4333 1 4572 4575 CFG=0
M  V30 4334 1 4575 4576 CFG=0
M  V30 4335 4 4576 4577 CFG=0
M  V30 4336 4 4576 4578 CFG=0
M  V30 4337 1 4571 4579 CFG=0
M  V30 4338 1 4580 4572 CFG=0
M  V30 4339 1 4581 4575 CFG=0
M  V30 4340 1 4582 4575 CFG=0
M  V30 4341 1 4583 4584 CFG=0
M  V30 4342 1 4584 4585 CFG=0
M  V30 4343 2 4585 4586 CFG=0
M  V30 4344 1 4584 4587 CFG=0
M  V30 4345 1 4587 4588 CFG=0
M  V30 4346 1 4587 4589 CFG=0
M  V30 4347 1 4583 4590 CFG=0
M  V30 4348 1 4591 4584 CFG=0
M  V30 4349 1 4592 4587 CFG=0
M  V30 4350 1 4593 4588 CFG=0
M  V30 4351 1 4594 4588 CFG=0
M  V30 4352 1 4595 4588 CFG=0
M  V30 4353 1 4596 4589 CFG=0
M  V30 4354 1 4597 4589 CFG=0
M  V30 4355 1 4598 4589 CFG=0
M  V30 4356 1 4599 4600 CFG=0
M  V30 4357 1 4600 4601 CFG=0
M  V30 4358 2 4601 4602 CFG=0
M  V30 4359 1 4600 4603 CFG=0
M  V30 4360 1 4603 4604 CFG=0
M  V30 4361 4 4604 4605 CFG=0
M  V30 4362 4 4604 4606 CFG=0
M  V30 4363 4 4605 4607 CFG=0
M  V30 4364 4 4606 4608 CFG=0
M  V30 4365 4 4607 4609 CFG=0
M  V30 4366 4 4608 4609 CFG=0
M  V30 4367 1 4599 4610 CFG=0
M  V30 4368 1 4611 4600 CFG=0
M  V30 4369 1 4612 4603 CFG=0
M  V30 4370 1 4613 4603 CFG=0
M  V30 4371 1 4614 4605 CFG=0
M  V30 4372 1 4615 4606 CFG=0
M  V30 4373 1 4616 4607 CFG=0
M  V30 4374 1 4617 4608 CFG=0
M  V30 4375 1 4618 4609 CFG=0
M  V30 4376 1 4619 4620 CFG=0
M  V30 4377 1 4620 4621 CFG=0
M  V30 4378 2 4621 4622 CFG=0
M  V30 4379 1 4620 4623 CFG=0
M  V30 4380 1 4623 4624 CFG=0
M  V30 4381 4 4624 4625 CFG=0
M  V30 4382 4 4624 4626 CFG=0
M  V30 4383 4 4625 4627 CFG=0
M  V30 4384 4 4626 4628 CFG=0
M  V30 4385 4 4627 4629 CFG=0
M  V30 4386 4 4628 4629 CFG=0
M  V30 4387 1 4629 4630 CFG=0
M  V30 4388 1 4619 4631 CFG=0
M  V30 4389 1 4632 4620 CFG=0
M  V30 4390 1 4633 4623 CFG=0
M  V30 4391 1 4634 4623 CFG=0
M  V30 4392 1 4635 4625 CFG=0
M  V30 4393 1 4636 4626 CFG=0
M  V30 4394 1 4637 4627 CFG=0
M  V30 4395 1 4638 4628 CFG=0
M  V30 4396 1 4639 4630 CFG=0
M  V30 4397 1 4640 4641 CFG=0
M  V30 4398 1 4641 4642 CFG=0
M  V30 4399 2 4642 4643 CFG=0
M  V30 4400 1 4641 4644 CFG=0
M  V30 4401 1 4644 4645 CFG=0
M  V30 4402 1 4645 4646 CFG=0
M  V30 4403 1 4646 4647 CFG=0
M  V30 4404 1 4647 4648 CFG=0
M  V30 4405 1 4640 4649 CFG=0
M  V30 4406 1 4650 4641 CFG=0
M  V30 4407 1 4651 4644 CFG=0
M  V30 4408 1 4652 4644 CFG=0
M  V30 4409 1 4653 4645 CFG=0
M  V30 4410 1 4654 4645 CFG=0
M  V30 4411 1 4655 4646 CFG=0
M  V30 4412 1 4656 4646 CFG=0
M  V30 4413 1 4657 4647 CFG=0
M  V30 4414 1 4658 4647 CFG=0
M  V30 4415 1 4659 4648 CFG=0
M  V30 4416 1 4660 4648 CFG=0
M  V30 4417 1 4661 4648 CFG=0
M  V30 4418 1 4662 4663 CFG=0
M  V30 4419 1 4663 4664 CFG=0
M  V30 4420 2 4664 4665 CFG=0
M  V30 4421 1 4663 4666 CFG=0
M  V30 4422 1 4666 4667 CFG=0
M  V30 4423 1 4667 4668 CFG=0
M  V30 4424 4 4668 4669 CFG=0
M  V30 4425 4 4668 4670 CFG=0
M  V30 4426 1 4662 4671 CFG=0
M  V30 4427 1 4672 4663 CFG=0
M  V30 4428 1 4673 4666 CFG=0
M  V30 4429 1 4674 4666 CFG=0
M  V30 4430 1 4675 4667 CFG=0
M  V30 4431 1 4676 4667 CFG=0
M  V30 4432 1 4677 4678 CFG=0
M  V30 4433 1 4678 4679 CFG=0
M  V30 4434 2 4679 4680 CFG=0
M  V30 4435 1 4678 4681 CFG=0
M  V30 4436 1 4681 4682 CFG=0
M  V30 4437 1 4681 4683 CFG=0
M  V30 4438 1 4677 4684 CFG=0
M  V30 4439 1 4685 4678 CFG=0
M  V30 4440 1 4686 4681 CFG=0
M  V30 4441 1 4687 4682 CFG=0
M  V30 4442 1 4688 4683 CFG=0
M  V30 4443 1 4689 4683 CFG=0
M  V30 4444 1 4690 4683 CFG=0
M  V30 4445 1 4691 4692 CFG=0
M  V30 4446 1 4692 4693 CFG=0
M  V30 4447 2 4693 4694 CFG=0
M  V30 4448 1 4692 4695 CFG=0
M  V30 4449 1 4695 4696 CFG=0
M  V30 4450 1 4691 4697 CFG=0
M  V30 4451 1 4698 4692 CFG=0
M  V30 4452 1 4699 4695 CFG=0
M  V30 4453 1 4700 4695 CFG=0
M  V30 4454 1 4701 4696 CFG=0
M  V30 4455 1 4702 4703 CFG=0
M  V30 4456 1 4703 4704 CFG=0
M  V30 4457 2 4704 4705 CFG=0
M  V30 4458 1 4703 4706 CFG=0
M  V30 4459 1 4706 4707 CFG=0
M  V30 4460 4 4707 4708 CFG=0
M  V30 4461 4 4707 4709 CFG=0
M  V30 4462 4 4708 4710 CFG=0
M  V30 4463 4 4709 4711 CFG=0
M  V30 4464 4 4710 4712 CFG=0
M  V30 4465 4 4711 4712 CFG=0
M  V30 4466 1 4712 4713 CFG=0
M  V30 4467 1 4702 4714 CFG=0
M  V30 4468 1 4715 4703 CFG=0
M  V30 4469 1 4716 4706 CFG=0
M  V30 4470 1 4717 4706 CFG=0
M  V30 4471 1 4718 4708 CFG=0
M  V30 4472 1 4719 4709 CFG=0
M  V30 4473 1 4720 4710 CFG=0
M  V30 4474 1 4721 4711 CFG=0
M  V30 4475 1 4722 4713 CFG=0
M  V30 4476 1 4723 4724 CFG=0
M  V30 4477 1 4724 4725 CFG=0
M  V30 4478 2 4725 4726 CFG=0
M  V30 4479 1 4724 4727 CFG=0
M  V30 4480 1 4727 4728 CFG=0
M  V30 4481 1 4727 4729 CFG=0
M  V30 4482 1 4723 4730 CFG=0
M  V30 4483 1 4731 4724 CFG=0
M  V30 4484 1 4732 4727 CFG=0
M  V30 4485 1 4733 4728 CFG=0
M  V30 4486 1 4734 4729 CFG=0
M  V30 4487 1 4735 4729 CFG=0
M  V30 4488 1 4736 4729 CFG=0
M  V30 4489 1 4737 4738 CFG=0
M  V30 4490 1 4738 4739 CFG=0
M  V30 4491 2 4739 4740 CFG=0
M  V30 4492 1 4738 4741 CFG=0
M  V30 4493 1 4741 4742 CFG=0
M  V30 4494 1 4741 4743 CFG=0
M  V30 4495 1 4737 4744 CFG=0
M  V30 4496 1 4745 4738 CFG=0
M  V30 4497 1 4746 4741 CFG=0
M  V30 4498 1 4747 4742 CFG=0
M  V30 4499 1 4748 4743 CFG=0
M  V30 4500 1 4749 4743 CFG=0
M  V30 4501 1 4750 4743 CFG=0
M  V30 4502 1 4739 4751 CFG=0
M  V30 4503 1 3 23 CFG=0
M  V30 4504 1 25 37 CFG=0
M  V30 4505 1 39 51 CFG=0
M  V30 4506 1 53 67 CFG=0
M  V30 4507 1 69 79 CFG=0
M  V30 4508 1 81 93 CFG=0
M  V30 4509 1 95 107 CFG=0
M  V30 4510 1 109 121 CFG=0
M  V30 4511 1 123 140 CFG=0
M  V30 4512 1 142 158 CFG=0
M  V30 4513 1 160 172 CFG=0
M  V30 4514 1 174 189 CFG=0
M  V30 4515 1 191 208 CFG=0
M  V30 4516 1 210 224 CFG=0
M  V30 4517 1 226 236 CFG=0
M  V30 4518 1 238 253 CFG=0
M  V30 4519 1 255 264 CFG=0
M  V30 4520 1 266 281 CFG=0
M  V30 4521 1 283 295 CFG=0
M  V30 4522 1 297 316 CFG=0
M  V30 4523 1 318 323 CFG=0
M  V30 4524 1 325 340 CFG=0
M  V30 4525 1 342 357 CFG=0
M  V30 4526 1 359 377 CFG=0
M  V30 4527 1 379 384 CFG=0
M  V30 4528 1 386 398 CFG=0
M  V30 4529 1 400 412 CFG=0
M  V30 4530 1 414 433 CFG=0
M  V30 4531 1 435 452 CFG=0
M  V30 4532 1 454 464 CFG=0
M  V30 4533 1 466 471 CFG=0
M  V30 4534 1 473 481 CFG=0
M  V30 4535 1 483 493 CFG=0
M  V30 4536 1 495 509 CFG=0
M  V30 4537 1 511 523 CFG=0
M  V30 4538 1 525 545 CFG=0
M  V30 4539 1 547 564 CFG=0
M  V30 4540 1 566 586 CFG=0
M  V30 4541 1 588 600 CFG=0
M  V30 4542 1 602 618 CFG=0
M  V30 4543 1 620 634 CFG=0
M  V30 4544 1 636 648 CFG=0
M  V30 4545 1 650 666 CFG=0
M  V30 4546 1 668 681 CFG=0
M  V30 4547 1 683 688 CFG=0
M  V30 4548 1 690 710 CFG=0
M  V30 4549 1 712 724 CFG=0
M  V30 4550 1 726 744 CFG=0
M  V30 4551 1 746 764 CFG=0
M  V30 4552 1 766 780 CFG=0
M  V30 4553 1 782 799 CFG=0
M  V30 4554 1 801 813 CFG=0
M  V30 4555 1 815 824 CFG=0
M  V30 4556 1 826 836 CFG=0
M  V30 4557 1 838 848 CFG=0
M  V30 4558 1 850 862 CFG=0
M  V30 4559 1 864 881 CFG=0
M  V30 4560 1 883 905 CFG=0
M  V30 4561 1 907 916 CFG=0
M  V30 4562 1 918 931 CFG=0
M  V30 4563 1 933 941 CFG=0
M  V30 4564 1 943 961 CFG=0
M  V30 4565 1 963 976 CFG=0
M  V30 4566 1 978 997 CFG=0
M  V30 4567 1 999 1018 CFG=0
M  V30 4568 1 1020 1036 CFG=0
M  V30 4569 1 1038 1050 CFG=0
M  V30 4570 1 1052 1069 CFG=0
M  V30 4571 1 1071 1081 CFG=0
M  V30 4572 1 1083 1096 CFG=0
M  V30 4573 1 1098 1107 CFG=0
M  V30 4574 1 1109 1127 CFG=0
M  V30 4575 1 1129 1146 CFG=0
M  V30 4576 1 1148 1153 CFG=0
M  V30 4577 1 1155 1177 CFG=0
M  V30 4578 1 1179 1198 CFG=0
M  V30 4579 1 1200 1215 CFG=0
M  V30 4580 1 1217 1226 CFG=0
M  V30 4581 1 1228 1236 CFG=0
M  V30 4582 1 1238 1255 CFG=0
M  V30 4583 1 1257 1269 CFG=0
M  V30 4584 1 1271 1287 CFG=0
M  V30 4585 1 1289 1301 CFG=0
M  V30 4586 1 1303 1323 CFG=0
M  V30 4587 1 1325 1345 CFG=0
M  V30 4588 1 1347 1369 CFG=0
M  V30 4589 1 1371 1391 CFG=0
M  V30 4590 1 1393 1411 CFG=0
M  V30 4591 1 1413 1425 CFG=0
M  V30 4592 1 1427 1442 CFG=0
M  V30 4593 1 1444 1458 CFG=0
M  V30 4594 1 1460 1465 CFG=0
M  V30 4595 1 1467 1472 CFG=0
M  V30 4596 1 1474 1491 CFG=0
M  V30 4597 1 1493 1505 CFG=0
M  V30 4598 1 1507 1516 CFG=0
M  V30 4599 1 1518 1535 CFG=0
M  V30 4600 1 1537 1557 CFG=0
M  V30 4601 1 1559 1581 CFG=0
M  V30 4602 1 1583 1591 CFG=0
M  V30 4603 1 1593 1603 CFG=0
M  V30 4604 1 1605 1617 CFG=0
M  V30 4605 1 1619 1631 CFG=0
M  V30 4606 1 1635 1644 CFG=0
M  V30 4607 1 1646 1665 CFG=0
M  V30 4608 1 1667 1684 CFG=0
M  V30 4609 1 1686 1695 CFG=0
M  V30 4610 1 1697 1706 CFG=0
M  V30 4611 1 1708 1722 CFG=0
M  V30 4612 1 1724 1741 CFG=0
M  V30 4613 1 1743 1760 CFG=0
M  V30 4614 1 1762 1770 CFG=0
M  V30 4615 1 1772 1789 CFG=0
M  V30 4616 1 1791 1806 CFG=0
M  V30 4617 1 1808 1823 CFG=0
M  V30 4618 1 1825 1842 CFG=0
M  V30 4619 1 1844 1857 CFG=0
M  V30 4620 1 1859 1873 CFG=0
M  V30 4621 1 1875 1895 CFG=0
M  V30 4622 1 1897 1915 CFG=0
M  V30 4623 1 1917 1929 CFG=0
M  V30 4624 1 1931 1939 CFG=0
M  V30 4625 1 1941 1953 CFG=0
M  V30 4626 1 1955 1963 CFG=0
M  V30 4627 1 1965 1982 CFG=0
M  V30 4628 1 1984 1999 CFG=0
M  V30 4629 1 2001 2014 CFG=0
M  V30 4630 1 2016 2024 CFG=0
M  V30 4631 1 2026 2045 CFG=0
M  V30 4632 1 2047 2066 CFG=0
M  V30 4633 1 2068 2090 CFG=0
M  V30 4634 1 2092 2100 CFG=0
M  V30 4635 1 2102 2124 CFG=0
M  V30 4636 1 2126 2134 CFG=0
M  V30 4637 1 2136 2141 CFG=0
M  V30 4638 1 2143 2153 CFG=0
M  V30 4639 1 2155 2163 CFG=0
M  V30 4640 1 2165 2173 CFG=0
M  V30 4641 1 2175 2187 CFG=0
M  V30 4642 1 2189 2207 CFG=0
M  V30 4643 1 2209 2218 CFG=0
M  V30 4644 1 2220 2228 CFG=0
M  V30 4645 1 2230 2247 CFG=0
M  V30 4646 1 2249 2266 CFG=0
M  V30 4647 1 2268 2285 CFG=0
M  V30 4648 1 2287 2295 CFG=0
M  V30 4649 1 2297 2316 CFG=0
M  V30 4650 1 2318 2327 CFG=0
M  V30 4651 1 2329 2341 CFG=0
M  V30 4652 1 2343 2363 CFG=0
M  V30 4653 1 2365 2377 CFG=0
M  V30 4654 1 2379 2393 CFG=0
M  V30 4655 1 2395 2400 CFG=0
M  V30 4656 1 2402 2415 CFG=0
M  V30 4657 1 2417 2434 CFG=0
M  V30 4658 1 2436 2441 CFG=0
M  V30 4659 1 2443 2453 CFG=0
M  V30 4660 1 2455 2469 CFG=0
M  V30 4661 1 2471 2493 CFG=0
M  V30 4662 1 2495 2508 CFG=0
M  V30 4663 1 2510 2522 CFG=0
M  V30 4664 1 2524 2539 CFG=0
M  V30 4665 1 2541 2553 CFG=0
M  V30 4666 1 2555 2571 CFG=0
M  V30 4667 1 2573 2590 CFG=0
M  V30 4668 1 2592 2609 CFG=0
M  V30 4669 1 2611 2626 CFG=0
M  V30 4670 1 2628 2644 CFG=0
M  V30 4671 1 2646 2654 CFG=0
M  V30 4672 1 2656 2668 CFG=0
M  V30 4673 1 2670 2687 CFG=0
M  V30 4674 1 2689 2702 CFG=0
M  V30 4675 1 2704 2713 CFG=0
M  V30 4676 1 2715 2723 CFG=0
M  V30 4677 1 2725 2745 CFG=0
M  V30 4678 1 2747 2769 CFG=0
M  V30 4679 1 2771 2785 CFG=0
M  V30 4680 1 2787 2804 CFG=0
M  V30 4681 1 2806 2818 CFG=0
M  V30 4682 1 2820 2834 CFG=0
M  V30 4683 1 2836 2850 CFG=0
M  V30 4684 1 2852 2861 CFG=0
M  V30 4685 1 2863 2883 CFG=0
M  V30 4686 1 2885 2901 CFG=0
M  V30 4687 1 2903 2912 CFG=0
M  V30 4688 1 2914 2919 CFG=0
M  V30 4689 1 2921 2936 CFG=0
M  V30 4690 1 2938 2958 CFG=0
M  V30 4691 1 2960 2972 CFG=0
M  V30 4692 1 2974 2986 CFG=0
M  V30 4693 1 2988 3000 CFG=0
M  V30 4694 1 3002 3019 CFG=0
M  V30 4695 1 3021 3033 CFG=0
M  V30 4696 1 3035 3040 CFG=0
M  V30 4697 1 3042 3056 CFG=0
M  V30 4698 1 3058 3071 CFG=0
M  V30 4699 1 3073 3081 CFG=0
M  V30 4700 1 3083 3097 CFG=0
M  V30 4701 1 3099 3114 CFG=0
M  V30 4702 1 3116 3135 CFG=0
M  V30 4703 1 3137 3152 CFG=0
M  V30 4704 1 3154 3159 CFG=0
M  V30 4705 1 3161 3173 CFG=0
M  V30 4706 1 3175 3192 CFG=0
M  V30 4707 1 3194 3203 CFG=0
M  V30 4708 1 3205 3224 CFG=0
M  V30 4709 1 3226 3236 CFG=0
M  V30 4710 1 3238 3250 CFG=0
M  V30 4711 1 3252 3269 CFG=0
M  V30 4712 1 3271 3291 CFG=0
M  V30 4713 1 3293 3305 CFG=0
M  V30 4714 1 3307 3312 CFG=0
M  V30 4715 1 3314 3328 CFG=0
M  V30 4716 1 3330 3339 CFG=0
M  V30 4717 1 3341 3358 CFG=0
M  V30 4718 1 3360 3372 CFG=0
M  V30 4719 1 3374 3383 CFG=0
M  V30 4720 1 3385 3399 CFG=0
M  V30 4721 1 3401 3410 CFG=0
M  V30 4722 1 3412 3417 CFG=0
M  V30 4723 1 3419 3441 CFG=0
M  V30 4724 1 3443 3453 CFG=0
M  V30 4725 1 3455 3463 CFG=0
M  V30 4726 1 3465 3477 CFG=0
M  V30 4727 1 3479 3494 CFG=0
M  V30 4728 1 3496 3515 CFG=0
M  V30 4729 1 3517 3534 CFG=0
M  V30 4730 1 3536 3550 CFG=0
M  V30 4731 1 3552 3567 CFG=0
M  V30 4732 1 3569 3584 CFG=0
M  V30 4733 1 3586 3599 CFG=0
M  V30 4734 1 3601 3610 CFG=0
M  V30 4735 1 3612 3621 CFG=0
M  V30 4736 1 3623 3641 CFG=0
M  V30 4737 1 3643 3657 CFG=0
M  V30 4738 1 3659 3674 CFG=0
M  V30 4739 1 3676 3691 CFG=0
M  V30 4740 1 3693 3702 CFG=0
M  V30 4741 1 3704 3712 CFG=0
M  V30 4742 1 3714 3726 CFG=0
M  V30 4743 1 3728 3740 CFG=0
M  V30 4744 1 3742 3750 CFG=0
M  V30 4745 1 3752 3765 CFG=0
M  V30 4746 1 3767 3786 CFG=0
M  V30 4747 1 3788 3808 CFG=0
M  V30 4748 1 3810 3827 CFG=0
M  V30 4749 1 3829 3844 CFG=0
M  V30 4750 1 3846 3861 CFG=0
M  V30 4751 1 3863 3868 CFG=0
M  V30 4752 1 3870 3882 CFG=0
M  V30 4753 1 3884 3902 CFG=0
M  V30 4754 1 3904 3921 CFG=0
M  V30 4755 1 3923 3932 CFG=0
M  V30 4756 1 3934 3942 CFG=0
M  V30 4757 1 3944 3956 CFG=0
M  V30 4758 1 3958 3971 CFG=0
M  V30 4759 1 3973 3992 CFG=0
M  V30 4760 1 3994 4006 CFG=0
M  V30 4761 1 4008 4013 CFG=0
M  V30 4762 1 4015 4027 CFG=0
M  V30 4763 1 4029 4048 CFG=0
M  V30 4764 1 4050 4065 CFG=0
M  V30 4765 1 4069 4077 CFG=0
M  V30 4766 1 4079 4084 CFG=0
M  V30 4767 1 4086 4102 CFG=0
M  V30 4768 1 4104 4123 CFG=0
M  V30 4769 1 4125 4137 CFG=0
M  V30 4770 1 4139 4155 CFG=0
M  V30 4771 1 4157 4174 CFG=0
M  V30 4772 1 4176 4188 CFG=0
M  V30 4773 1 4190 4198 CFG=0
M  V30 4774 1 4200 4220 CFG=0
M  V30 4775 1 4222 4235 CFG=0
M  V30 4776 1 4237 4249 CFG=0
M  V30 4777 1 4251 4268 CFG=0
M  V30 4778 1 4270 4289 CFG=0
M  V30 4779 1 4291 4313 CFG=0
M  V30 4780 1 4315 4332 CFG=0
M  V30 4781 1 4334 4344 CFG=0
M  V30 4782 1 4346 4351 CFG=0
M  V30 4783 1 4353 4361 CFG=0
M  V30 4784 1 4363 4379 CFG=0
M  V30 4785 1 4381 4398 CFG=0
M  V30 4786 1 4400 4412 CFG=0
M  V30 4787 1 4414 4434 CFG=0
M  V30 4788 1 4436 4451 CFG=0
M  V30 4789 1 4453 4462 CFG=0
M  V30 4790 1 4464 4477 CFG=0
M  V30 4791 1 4479 4498 CFG=0
M  V30 4792 1 4500 4520 CFG=0
M  V30 4793 1 4522 4527 CFG=0
M  V30 4794 1 4529 4541 CFG=0
M  V30 4795 1 4543 4557 CFG=0
M  V30 4796 1 4559 4571 CFG=0
M  V30 4797 1 4573 4583 CFG=0
M  V30 4798 1 4585 4599 CFG=0
M  V30 4799 1 4601 4619 CFG=0
M  V30 4800 1 4621 4640 CFG=0
M  V30 4801 1 4642 4662 CFG=0
M  V30 4802 1 4664 4677 CFG=0
M  V30 4803 1 4679 4691 CFG=0
M  V30 4804 1 4693 4702 CFG=0
M  V30 4805 1 4704 4723 CFG=0
M  V30 4806 1 4725 4737 CFG=0
M  V30 END BOND
M  V30 END CTAB
M  END
> <Atoms with fractional formal charges>
73 -1/2
74 -1/2
230 -1/2
231 -1/2
458 -1/2
459 -1/2
487 -1/2
488 -1/2
673 -1/2
674 -1/2
830 -1/2
831 -1/2
842 -1/2
843 -1/2
890 +1/2
891 +1/2
923 -1/2
924 -1/2
968 -1/2
969 -1/2
1075 -1/2
1076 -1/2
1088 -1/2
1089 -1/2
1162 +1/2
1163 +1/2
1597 -1/2
1598 -1/2
1849 -1/2
1850 -1/2
2006 -1/2
2007 -1/2
2075 +1/2
2076 +1/2
2109 +1/2
2110 +1/2
2147 -1/2
2148 -1/2
2407 -1/2
2408 -1/2
2447 -1/2
2448 -1/2
2478 +1/2
2479 +1/2
2500 -1/2
2501 -1/2
2694 -1/2
2695 -1/2
2754 +1/2
2755 +1/2
3063 -1/2
3064 -1/2
3230 -1/2
3231 -1/2
3426 +1/2
3427 +1/2
3447 -1/2
3448 -1/2
3591 -1/2
3592 -1/2
3757 -1/2
3758 -1/2
3963 -1/2
3964 -1/2
4227 -1/2
4228 -1/2
4298 +1/2
4299 +1/2
4338 -1/2
4339 -1/2
4469 -1/2
4470 -1/2
4577 -1/2
4578 -1/2
4669 -1/2
4670 -1/2

> <Molecule Solvent Accessibility>
2664.11

$$$$
out_ligand_1
  DSViewer          3D                             0

 28 31  0  0  0  0  0  0  0  0999 V2000
  -19.0060   42.8150  -39.8870 C   0  0
  -18.3490   43.2320  -41.0250 C   0  0
  -17.7850   44.5020  -41.0210 C   0  0
  -17.9980   45.3570  -39.9620 C   0  0
  -17.3280   46.4490  -39.4260 C   0  0
  -18.1650   46.9070  -38.4660 N   0  0
  -19.2040   46.1200  -38.3290 N   0  0
  -19.0420   45.0330  -39.1060 C   0  0
  -19.6760   43.7980  -39.1710 C   0  0
  -19.2270   41.0830  -39.4740 S   0  0
  -17.6160   40.3160  -39.5700 C   0  0
  -17.3950   39.3540  -40.5370 C   0  0
  -16.0840   39.0830  -40.8990 C   0  0
  -15.0390   39.6760  -40.2030 C   0  0
  -15.3260   40.4110  -39.0580 C   0  0
  -16.6270   40.7210  -38.6950 C   0  0
  -18.4960   38.4460  -40.8790 C   0  0
  -18.8320   37.3550  -40.0140 N   0  0
  -20.1490   36.7540  -40.2060 C   0  0
  -18.6700   38.2400  -42.1150 O   0  0
  -15.8990   46.6970  -39.5960 C   0  0
  -15.1970   47.5190  -38.8530 C   0  0
  -13.8810   47.1750  -38.3010 C   0  0
  -12.9040   48.0990  -38.0530 C   0  0
  -11.5960   47.6750  -37.8580 C   0  0
  -11.3130   46.3380  -38.0760 C   0  0
  -12.3010   45.4090  -38.3180 C   0  0
  -13.5710   45.8690  -38.3020 N   0  0
  1  2  2  0  0  0
  1  9  1  0  0  0
  1 10  1  0  0  0
  2  3  1  0  0  0
  3  4  2  0  0  0
  4  5  1  0  0  0
  4  8  1  0  0  0
  5  6  2  0  0  0
  5 21  1  0  0  0
  6  7  1  0  0  0
  7  8  1  0  0  0
  8  9  2  0  0  0
 10 11  1  0  0  0
 11 16  4  0  0  0
 11 12  4  0  0  0
 12 17  1  0  0  0
 12 13  4  0  0  0
 13 14  4  0  0  0
 14 15  4  0  0  0
 15 16  4  0  0  0
 17 20  2  0  0  0
 17 18  1  0  0  0
 18 19  1  0  0  0
 21 22  2  0  0  0
 22 23  1  0  0  0
 23 24  4  0  0  0
 23 28  4  0  0  0
 24 25  4  0  0  0
 25 26  4  0  0  0
 26 27  4  0  0  0
 27 28  4  0  0  0
M  END
> <Molecule Solvent Accessibility>
0

$$$$
out_ligand_2
  DSViewer          3D                             0

 28 31  0  0  0  0  0  0  0  0999 V2000
  -18.1780   45.7000  -39.7570 C   0  0
  -17.4460   45.8550  -40.9160 C   0  0
  -16.1770   46.4110  -40.8120 C   0  0
  -15.7290   46.9100  -39.6090 C   0  0
  -14.4830   47.1400  -39.0390 C   0  0
  -14.7680   47.7790  -37.8800 N   0  0
  -16.0620   47.8450  -37.6810 N   0  0
  -16.6940   47.1410  -38.6380 C   0  0
  -17.9940   46.6710  -38.7820 C   0  0
  -19.4890   44.4860  -39.5940 S   0  0
  -18.8080   42.9140  -40.0990 C   0  0
  -19.1680   41.7790  -39.3970 C   0  0
  -19.0100   40.5500  -40.0210 C   0  0
  -18.3830   40.4800  -41.2580 C   0  0
  -17.7900   41.6250  -41.7770 C   0  0
  -17.9610   42.8680  -41.1890 C   0  0
  -19.3690   41.8920  -37.9480 C   0  0
  -20.5420   42.5250  -37.4250 N   0  0
  -20.8580   42.2540  -36.0250 C   0  0
  -18.3160   42.0330  -37.2610 O   0  0
  -13.2630   46.4410  -39.4290 C   0  0
  -12.0710   46.7090  -38.9510 C   0  0
  -11.1320   45.6710  -38.5090 C   0  0
  -11.4760   44.6560  -37.6600 C   0  0
  -10.4790   43.9260  -37.0280 C   0  0
   -9.1730   44.3610  -37.1700 C   0  0
   -8.8290   45.3780  -38.0330 C   0  0
   -9.8360   45.9130  -38.7590 N   0  0
  1  9  4  0  0  0
  1 10  1  0  0  0
  1  2  4  0  0  0
  2  3  4  0  0  0
  3  4  4  0  0  0
  4  5  1  0  0  0
  4  8  4  0  0  0
  5  6  2  0  0  0
  5 21  1  0  0  0
  6  7  1  0  0  0
  7  8  1  0  0  0
  8  9  4  0  0  0
 10 11  1  0  0  0
 11 16  4  0  0  0
 11 12  4  0  0  0
 12 17  1  0  0  0
 12 13  4  0  0  0
 13 14  4  0  0  0
 14 15  4  0  0  0
 15 16  4  0  0  0
 17 18  1  0  0  0
 17 20  2  0  0  0
 18 19  1  0  0  0
 21 22  2  0  0  0
 22 23  1  0  0  0
 23 24  4  0  0  0
 23 28  4  0  0  0
 24 25  4  0  0  0
 25 26  4  0  0  0
 26 27  4  0  0  0
 27 28  4  0  0  0
M  END
$$$$
out_ligand_3
  DSViewer          3D                             0

 28 31  0  0  0  0  0  0  0  0999 V2000
  -17.9200   45.3340  -39.9710 C   0  0
  -17.0080   45.5420  -40.9850 C   0  0
  -15.8890   46.3160  -40.7030 C   0  0
  -15.7730   46.9600  -39.4910 C   0  0
  -14.7170   47.4390  -38.7250 C   0  0
  -15.3220   48.0900  -37.7050 N   0  0
  -16.6240   47.9420  -37.7550 N   0  0
  -16.9350   47.0800  -38.7400 C   0  0
  -18.0890   46.3820  -39.0750 C   0  0
  -19.0280   43.9240  -39.9370 S   0  0
  -18.3890   42.7330  -41.1050 C   0  0
  -17.9300   41.5190  -40.6310 C   0  0
  -17.8500   40.4590  -41.5230 C   0  0
  -18.1010   40.6730  -42.8720 C   0  0
  -18.2780   41.9750  -43.3250 C   0  0
  -18.3930   43.0440  -42.4510 C   0  0
  -17.2430   41.4930  -39.3350 C   0  0
  -15.8220   41.3330  -39.2690 N   0  0
  -15.1810   41.7060  -38.0110 C   0  0
  -17.8980   40.9810  -38.3810 O   0  0
  -13.3480   46.9390  -38.8150 C   0  0
  -12.3010   47.5550  -38.3200 C   0  0
  -11.2580   46.8690  -37.5480 C   0  0
   -9.9900   46.6620  -38.0140 C   0  0
   -9.1740   45.7290  -37.3870 C   0  0
   -9.7410   44.9360  -36.4050 C   0  0
  -11.0160   45.1530  -35.9320 C   0  0
  -11.6800   46.2040  -36.4610 N   0  0
  1  2  2  0  0  0
  1 10  1  0  0  0
  1  9  1  0  0  0
  2  3  1  0  0  0
  3  4  2  0  0  0
  4  5  1  0  0  0
  4  8  1  0  0  0
  5  6  2  0  0  0
  5 21  1  0  0  0
  6  7  1  0  0  0
  7  8  1  0  0  0
  8  9  2  0  0  0
 10 11  1  0  0  0
 11 12  4  0  0  0
 11 16  4  0  0  0
 12 13  4  0  0  0
 12 17  1  0  0  0
 13 14  4  0  0  0
 14 15  4  0  0  0
 15 16  4  0  0  0
 17 20  2  0  0  0
 17 18  1  0  0  0
 18 19  1  0  0  0
 21 22  2  0  0  0
 22 23  1  0  0  0
 23 24  4  0  0  0
 23 28  4  0  0  0
 24 25  4  0  0  0
 25 26  4  0  0  0
 26 27  4  0  0  0
 27 28  4  0  0  0
M  END
$$$$
out_ligand_4
  DSViewer          3D                             0

 28 31  0  0  0  0  0  0  0  0999 V2000
  -12.0610   47.0160  -39.1640 C   0  0
  -12.5340   45.7620  -38.8390 C   0  0
  -13.8730   45.6440  -38.4890 C   0  0
  -14.6590   46.7650  -38.3430 C   0  0
  -16.0200   47.0320  -38.4130 C   0  0
  -16.1200   48.3260  -38.0290 N   0  0
  -14.9350   48.8580  -37.8460 N   0  0
  -13.9910   47.9770  -38.2230 C   0  0
  -12.6290   48.0810  -38.4770 C   0  0
  -10.6220   47.2710  -40.2050 S   0  0
   -9.4770   48.2750  -39.2720 C   0  0
   -8.5170   47.6460  -38.5010 C   0  0
   -7.3920   48.3720  -38.1410 C   0  0
   -7.3180   49.7260  -38.4440 C   0  0
   -8.4390   50.3600  -38.9660 C   0  0
   -9.5620   49.6510  -39.3630 C   0  0
   -8.8770   46.3920  -37.8300 C   0  0
   -9.5890   46.4120  -36.5880 N   0  0
  -10.2440   45.1680  -36.1920 C   0  0
   -8.0570   45.4400  -37.9770 O   0  0
  -16.9770   46.2160  -39.1530 C   0  0
  -17.4170   46.4980  -40.3560 C   0  0
  -17.5130   45.5010  -41.4300 C   0  0
  -17.7580   45.8230  -42.7360 C   0  0
  -18.1660   44.8330  -43.6190 C   0  0
  -18.4560   43.5850  -43.0970 C   0  0
  -18.2010   43.2610  -41.7830 C   0  0
  -17.6230   44.2240  -41.0320 N   0  0
  1  9  4  0  0  0
  1  2  4  0  0  0
  1 10  1  0  0  0
  2  3  4  0  0  0
  3  4  4  0  0  0
  4  5  1  0  0  0
  4  8  4  0  0  0
  5  6  2  0  0  0
  5 21  1  0  0  0
  6  7  1  0  0  0
  7  8  1  0  0  0
  8  9  4  0  0  0
 10 11  1  0  0  0
 11 12  4  0  0  0
 11 16  4  0  0  0
 12 13  4  0  0  0
 12 17  1  0  0  0
 13 14  4  0  0  0
 14 15  4  0  0  0
 15 16  4  0  0  0
 17 20  2  0  0  0
 17 18  1  0  0  0
 18 19  1  0  0  0
 21 22  2  0  0  0
 22 23  1  0  0  0
 23 28  4  0  0  0
 23 24  4  0  0  0
 24 25  4  0  0  0
 25 26  4  0  0  0
 26 27  4  0  0  0
 27 28  4  0  0  0
M  END
$$$$
out_ligand_5
  DSViewer          3D                             0

 28 31  0  0  0  0  0  0  0  0999 V2000
  -18.2100   40.8740  -41.2620 C   0  0
  -18.1570   41.7570  -42.3200 C   0  0
  -18.2960   43.1110  -42.0440 C   0  0
  -18.6100   43.5360  -40.7720 C   0  0
  -18.4360   44.7120  -40.0530 C   0  0
  -19.1080   44.4920  -38.8990 N   0  0
  -19.5630   43.2630  -38.8430 N   0  0
  -19.1060   42.5730  -39.9030 C   0  0
  -19.0590   41.2200  -40.2180 C   0  0
  -17.4540   39.2490  -41.3160 S   0  0
  -15.7100   39.4970  -41.6150 C   0  0
  -14.8310   39.3760  -40.5560 C   0  0
  -13.4950   39.1350  -40.8420 C   0  0
  -13.0580   39.1520  -42.1600 C   0  0
  -13.9380   39.5620  -43.1550 C   0  0
  -15.2830   39.7770  -42.8990 C   0  0
  -15.2680   39.8370  -39.2330 C   0  0
  -15.4510   41.2330  -38.9750 N   0  0
  -16.2460   41.5800  -37.7990 C   0  0
  -14.8640   39.1450  -38.2540 O   0  0
  -17.4040   45.7030  -40.3430 C   0  0
  -16.9010   46.5290  -39.4560 C   0  0
  -15.4620   46.7850  -39.3240 C   0  0
  -14.5260   45.7910  -39.2450 C   0  0
  -13.2490   46.0910  -38.7880 C   0  0
  -13.0260   47.3600  -38.2850 C   0  0
  -13.9690   48.3600  -38.3740 C   0  0
  -15.1200   48.0430  -39.0070 N   0  0
  1  9  2  0  0  0
  1 10  1  0  0  0
  1  2  1  0  0  0
  2  3  2  0  0  0
  3  4  1  0  0  0
  4  8  2  0  0  0
  4  5  1  0  0  0
  5 21  1  0  0  0
  5  6  2  0  0  0
  6  7  1  0  0  0
  7  8  1  0  0  0
  8  9  1  0  0  0
 10 11  1  0  0  0
 11 12  4  0  0  0
 11 16  4  0  0  0
 12 13  4  0  0  0
 12 17  1  0  0  0
 13 14  4  0  0  0
 14 15  4  0  0  0
 15 16  4  0  0  0
 17 20  2  0  0  0
 17 18  1  0  0  0
 18 19  1  0  0  0
 21 22  2  0  0  0
 22 23  1  0  0  0
 23 24  4  0  0  0
 23 28  4  0  0  0
 24 25  4  0  0  0
 25 26  4  0  0  0
 26 27  4  0  0  0
 27 28  4  0  0  0
M  END
$$$$
out_ligand_6
  DSViewer          3D                             0

 28 31  0  0  0  0  0  0  0  0999 V2000
  -18.6930   42.7770  -39.9600 C   0  0
  -18.1150   43.3500  -41.0740 C   0  0
  -17.7360   44.6840  -40.9960 C   0  0
  -18.0530   45.4360  -39.8870 C   0  0
  -17.5370   46.5790  -39.2890 C   0  0
  -18.4180   46.8570  -38.3010 N   0  0
  -19.3350   45.9240  -38.2070 N   0  0
  -19.0310   44.9190  -39.0480 C   0  0
  -19.4860   43.6130  -39.1850 C   0  0
  -18.6620   41.0100  -39.6510 S   0  0
  -18.2110   40.2210  -41.1890 C   0  0
  -18.4980   38.8800  -41.3560 C   0  0
  -18.5580   38.3830  -42.6500 C   0  0
  -18.2040   39.1970  -43.7190 C   0  0
  -17.6500   40.4450  -43.4590 C   0  0
  -17.6100   40.9750  -42.1790 C   0  0
  -18.3900   37.9950  -40.1910 C   0  0  2  0  0  0
  -17.1160   37.4840  -39.7830 N   0  0
  -17.0320   36.9530  -38.4250 C   0  0
  -19.3780   37.2280  -39.9960 O   0  0
  -16.1600   47.0360  -39.4500 C   0  0
  -15.4790   47.6750  -38.5280 C   0  0
  -14.0930   47.3410  -38.1780 C   0  0
  -13.1040   48.2760  -38.0490 C   0  0
  -11.7760   47.8710  -38.0530 C   0  0
  -11.5080   46.5460  -38.3450 C   0  0
  -12.5070   45.6050  -38.4670 C   0  0
  -13.7680   46.0420  -38.2580 N   0  0
  1  2  2  0  0  0
  1  9  1  0  0  0
  1 10  1  0  0  0
  2  3  1  0  0  0
  3  4  2  0  0  0
  4  5  1  0  0  0
  4  8  1  0  0  0
  5  6  2  0  0  0
  5 21  1  0  0  0
  6  7  1  0  0  0
  7  8  1  0  0  0
  8  9  2  0  0  0
 10 11  1  0  0  0
 11 16  4  0  0  0
 11 12  4  0  0  0
 12 17  1  0  0  0
 12 13  4  0  0  0
 13 14  4  0  0  0
 14 15  4  0  0  0
 15 16  4  0  0  0
 17 20  1  0  0  0
 17 18  1  0  0  0
 18 19  1  0  0  0
 21 22  2  0  0  0
 22 23  1  0  0  0
 23 24  4  0  0  0
 23 28  4  0  0  0
 24 25  4  0  0  0
 25 26  4  0  0  0
 26 27  4  0  0  0
 27 28  4  0  0  0
M  END
$$$$
out_ligand_7
  DSViewer          3D                             0

 28 31  0  0  0  0  0  0  0  0999 V2000
  -18.1540   41.2820  -40.2170 C   0  0
  -18.1380   42.0880  -41.3370 C   0  0
  -18.3570   43.4480  -41.1610 C   0  0
  -18.7100   43.9450  -39.9260 C   0  0
  -18.6120   45.1780  -39.2930 C   0  0
  -19.2850   45.0040  -38.1310 N   0  0
  -19.6710   43.7580  -37.9900 N   0  0
  -19.1620   43.0200  -38.9930 C   0  0
  -19.0340   41.6530  -39.2090 C   0  0
  -17.3060   39.7030  -40.1470 S   0  0
  -18.4180   38.4850  -40.8340 C   0  0
  -18.1840   38.0190  -42.1140 C   0  0
  -18.7460   36.8050  -42.4780 C   0  0
  -19.6210   36.1620  -41.6120 C   0  0
  -20.0360   36.8230  -40.4620 C   0  0
  -19.4650   38.0220  -40.0620 C   0  0
  -17.6580   38.9600  -43.1100 C   0  0
  -18.5390   39.5980  -44.0410 N   0  0
  -18.0220   40.7840  -44.7180 C   0  0
  -16.4960   38.7050  -43.5400 O   0  0
  -17.6350   46.2030  -39.6460 C   0  0
  -16.8870   46.8430  -38.7780 C   0  0
  -15.4480   47.0640  -38.9680 C   0  0
  -14.5780   46.0770  -39.3410 C   0  0
  -13.2130   46.2710  -39.1740 C   0  0
  -12.8020   47.4020  -38.4910 C   0  0
  -13.6810   48.3970  -38.1240 C   0  0
  -14.9690   48.2240  -38.4930 N   0  0
  1  2  2  0  0  0
  1 10  1  0  0  0
  1  9  1  0  0  0
  2  3  1  0  0  0
  3  4  2  0  0  0
  4  5  1  0  0  0
  4  8  1  0  0  0
  5 21  1  0  0  0
  5  6  2  0  0  0
  6  7  1  0  0  0
  7  8  1  0  0  0
  8  9  2  0  0  0
 10 11  1  0  0  0
 11 12  4  0  0  0
 11 16  4  0  0  0
 12 17  1  0  0  0
 12 13  4  0  0  0
 13 14  4  0  0  0
 14 15  4  0  0  0
 15 16  4  0  0  0
 17 18  1  0  0  0
 17 20  2  0  0  0
 18 19  1  0  0  0
 21 22  2  0  0  0
 22 23  1  0  0  0
 23 28  4  0  0  0
 23 24  4  0  0  0
 24 25  4  0  0  0
 25 26  4  0  0  0
 26 27  4  0  0  0
 27 28  4  0  0  0
M  END
$$$$
out_ligand_8
  DSViewer          3D                             0

 28 31  0  0  0  0  0  0  0  0999 V2000
  -18.0490   43.8920  -44.5030 C   0  0
  -18.2100   45.2580  -44.4000 C   0  0
  -18.0520   45.8370  -43.1470 C   0  0
  -17.8760   45.0500  -42.0310 C   0  0
  -17.3110   45.2310  -40.7740 C   0  0
  -17.6010   44.0840  -40.1170 N   0  0
  -18.1900   43.2200  -40.9090 N   0  0
  -18.2030   43.7070  -42.1630 C   0  0
  -18.4580   43.1430  -43.4070 C   0  0
  -17.5970   43.0820  -46.0390 S   0  0
  -16.2190   42.0050  -45.6720 C   0  0
  -14.9920   42.2780  -46.2460 C   0  0
  -13.8610   41.7420  -45.6500 C   0  0
  -13.9940   40.8540  -44.5900 C   0  0
  -15.2620   40.4010  -44.2490 C   0  0
  -16.4090   40.9440  -44.8080 C   0  0
  -14.9670   42.8160  -47.6110 C   0  0  2  0  0  0
  -14.8290   41.9400  -48.7340 N   0  0
  -15.2020   42.4860  -50.0370 C   0  0
  -14.4370   43.9590  -47.7370 O   0  0
  -16.2930   46.2320  -40.4720 C   0  0
  -16.1210   46.7810  -39.2930 C   0  0
  -14.8030   46.9510  -38.6710 C   0  0
  -14.2740   48.1700  -38.3490 C   0  0
  -12.9150   48.2770  -38.0840 C   0  0
  -12.1250   47.1640  -38.3100 C   0  0
  -12.6620   45.9360  -38.6280 C   0  0
  -14.0110   45.8680  -38.6790 N   0  0
  1  9  2  0  0  0
  1  2  1  0  0  0
  1 10  1  0  0  0
  2  3  2  0  0  0
  3  4  1  0  0  0
  4  5  1  0  0  0
  4  8  2  0  0  0
  5 21  1  0  0  0
  5  6  2  0  0  0
  6  7  1  0  0  0
  7  8  1  0  0  0
  8  9  1  0  0  0
 10 11  1  0  0  0
 11 16  4  0  0  0
 11 12  4  0  0  0
 12 13  4  0  0  0
 12 17  1  0  0  0
 13 14  4  0  0  0
 14 15  4  0  0  0
 15 16  4  0  0  0
 17 20  1  0  0  0
 17 18  1  0  0  0
 18 19  1  0  0  0
 21 22  2  0  0  0
 22 23  1  0  0  0
 23 24  4  0  0  0
 23 28  4  0  0  0
 24 25  4  0  0  0
 25 26  4  0  0  0
 26 27  4  0  0  0
 27 28  4  0  0  0
M  END
$$$$
out_ligand_9
  DSViewer          3D                             0

 28 31  0  0  0  0  0  0  0  0999 V2000
  -17.7640   40.9360  -41.2380 C   0  0
  -17.8080   41.8600  -42.2610 C   0  0
  -18.1830   43.1600  -41.9460 C   0  0
  -18.6240   43.4720  -40.6790 C   0  0
  -18.6830   44.6290  -39.9120 C   0  0
  -19.3630   44.2520  -38.8040 N   0  0
  -19.6100   42.9640  -38.8150 N   0  0
  -18.9940   42.4040  -39.8720 C   0  0
  -18.7070   41.0930  -40.2310 C   0  0
  -16.7460   39.4610  -41.3070 S   0  0
  -17.8280   38.0680  -41.0210 C   0  0
  -17.8660   37.5060  -39.7590 C   0  0
  -18.9760   36.7470  -39.4180 C   0  0
  -19.9410   36.4660  -40.3770 C   0  0
  -19.6990   36.8220  -41.6990 C   0  0
  -18.6140   37.6060  -42.0580 C   0  0
  -16.6210   37.4470  -38.9860 C   0  0
  -15.6400   36.4430  -39.2640 N   0  0
  -14.2960   36.6830  -38.7440 C   0  0
  -16.7150   37.8020  -37.7740 O   0  0
  -17.8180   45.7880  -40.1110 C   0  0
  -17.2460   46.4600  -39.1400 C   0  0
  -15.8370   46.8700  -39.1700 C   0  0
  -14.8150   46.0270  -39.5080 C   0  0
  -13.5080   46.3760  -39.1920 C   0  0
  -13.3140   47.4990  -38.4070 C   0  0
  -14.3440   48.3500  -38.0760 C   0  0
  -15.5590   48.0450  -38.5830 N   0  0
  1  9  4  0  0  0
  1 10  1  0  0  0
  1  2  4  0  0  0
  2  3  4  0  0  0
  3  4  4  0  0  0
  4  5  1  0  0  0
  4  8  4  0  0  0
  5 21  1  0  0  0
  5  6  2  0  0  0
  6  7  1  0  0  0
  7  8  1  0  0  0
  8  9  4  0  0  0
 10 11  1  0  0  0
 11 16  4  0  0  0
 11 12  4  0  0  0
 12 17  1  0  0  0
 12 13  4  0  0  0
 13 14  4  0  0  0
 14 15  4  0  0  0
 15 16  4  0  0  0
 17 18  1  0  0  0
 17 20  2  0  0  0
 18 19  1  0  0  0
 21 22  2  0  0  0
 22 23  1  0  0  0
 23 24  4  0  0  0
 23 28  4  0  0  0
 24 25  4  0  0  0
 25 26  4  0  0  0
 26 27  4  0  0  0
 27 28  4  0  0  0
M  END
$$$$
